Input file: inputs/input_test.txt
Output file: outputs/output_test.txt
Time Complete: Fri Nov 26 11:10:16 2021

Duration [second]: 0.000000
Word count in input files: 7
Word converted: 5
Word with error: 2
Total number of characters: 26
Number of characters have been converted: 23
Number of characters are NOT converted: 3
