Input file: inputs/input_test.txt
Output file: outputs/output_test.txt
Time Complete: Fri Nov 26 09:25:53 2021

Duration [second]: 0.000000
Word count in input files: 0
Word converted: 0
Word with error: 0
Total number of characters: 0
Number of characters have been converted: 0
Number of characters are NOT converted: 0
Input file: inputs/input_test.txt
Output file: outputs/output_test.txt
Time Complete: Fri Nov 26 09:26:23 2021

Duration [second]: 0.000000
Word count in input files: 0
Word converted: 0
Word with error: 0
Total number of characters: 0
Number of characters have been converted: 0
Number of characters are NOT converted: 0
Input file: inputs/input_test.txt
Output file: outputs/output_test.txt
Time Complete: Fri Nov 26 09:26:48 2021

Duration [second]: 0.000000
Word count in input files: 0
Word converted: 0
Word with error: 0
Total number of characters: 0
Number of characters have been converted: 0
Number of characters are NOT converted: 0
Input file: inputs/input_test.txt
Output file: outputs/output_test.txt
Time Complete: Fri Nov 26 09:27:33 2021

Duration [second]: 0.000000
Word count in input files: 0
Word converted: 0
Word with error: 0
Total number of characters: 0
Number of characters have been converted: 0
Number of characters are NOT converted: 0
