Input file: input_test.txt
Output file: output.txt
Time Complete: 2021-Nov-27 5:41:23
Duration [second]: 0.000000
Word count in input files: 47
Word converted: 47
Word with error: 0
Total number of characters: 138
Number of characters have been converted: 138
Number of characters are NOT converted: 0
