Input file: input_test.txt
Output file: output.txt
Time Complete: 2021-Nov-26 15:57:11
Duration [second]: 0.000000
Word count in input files: 0
Word converted: 0
Word with error: 0
Total number of characters: 0
Number of characters have been converted: 0
Number of characters are NOT converted: 0
