Input file: input_text.txt
Output file: output_text.txt
Time Complete: 2021-Nov-28 12:59:25
Duration [second]: 0.000000
Word count in input files: 6
Word converted: 5
Word with error: 1
Total number of characters: 21
Number of characters have been converted: 20
Number of characters are NOT converted: 1
Error 03: Unrecognized character # on line 1.
