Input file: input_test.txt
Output file: output.txt
Time Complete: 2021-Nov-28 8:12:43
Duration [second]: 0.000000
Word count in input files: 5
Word converted: 5
Word with error: 0
Total number of characters: 25
Number of characters have been converted: 25
Number of characters are NOT converted: 0
