Input file: input_test.txt
Output file: output.txt
Time Complete: 2021-Nov-28 7:51:49
Duration [second]: 0.000000
Word count in input files: 21
Word converted: 21
Word with error: 0
Total number of characters: 53
Number of characters have been converted: 53
Number of characters are NOT converted: 0
