Input file: input_test.txt
Output file: output.txt
Time Complete: 2021-Nov-28 0:36:35
Duration [second]: 0.000000
Word count in input files: 1
Word converted: 0
Word with error: 1
Total number of characters: 3
Number of characters have been converted: 0
Number of characters are NOT converted: 3
