Input file: input_test.txt
Output file: output.txt
Time Complete: 2021-Nov-27 6:9:49
Duration [second]: 0.000000
Word count in input files: 2
Word converted: 2
Word with error: 0
Total number of characters: 10
Number of characters have been converted: 10
Number of characters are NOT converted: 0
