Input file: input_test.txt
Output file: output.txt
Time Complete: 2021-Nov-26 17:30:41
Duration [second]: 0.000000
Word count in input files: 111
Word converted: 111
Word with error: 0
Total number of characters: 525
Number of characters have been converted: 525
Number of characters are NOT converted: 0
