Input file: input_test.txt
Output file: output_test.txt
Time Complete: 2021-Nov-26 15:46:51
Duration [second]: 0.000000
Word count in input files: 7
Word converted: 7
Word with error: 0
Total number of characters: 20
Number of characters have been converted: 20
Number of characters are NOT converted: 0
