Input file: input_test.txt
Output file: output.txt
Time Complete: 2021-Nov-26 20:31:10
Duration [second]: 0.000000
Word count in input files: 49579
Word converted: 47207
Word with error: 2372
Total number of characters: 262536
Number of characters have been converted: 256188
Number of characters are NOT converted: 6348
Error 03: Unrecognized character [ on line 6.
Error 03: Unrecognized character | on line 6.
Error 03: Unrecognized character | on line 6.
Error 03: Unrecognized character ] on line 6.
Error 03: Unrecognized character [ on line 6.
Error 03: Unrecognized character ] on line 6.
Error 03: Unrecognized character [ on line 6.
Error 03: Unrecognized character ] on line 6.
Error 03: Unrecognized character [ on line 6.
Error 03: Unrecognized character | on line 6.
Error 03: Unrecognized character ] on line 6.
Error 03: Unrecognized character [ on line 6.
Error 03: Unrecognized character < on line 6.
Error 03: Unrecognized character > on line 6.
Error 03: Unrecognized character ] on line 6.
Error 03: Unrecognized character [ on line 7.
Error 03: Unrecognized character < on line 7.
Error 03: Unrecognized character > on line 7.
Error 03: Unrecognized character ] on line 7.
Error 03: Unrecognized character [ on line 7.
Error 03: Unrecognized character | on line 7.
Error 03: Unrecognized character ] on line 7.
Error 03: Unrecognized character [ on line 7.
Error 03: Unrecognized character | on line 7.
Error 03: Unrecognized character ] on line 7.
Error 03: Unrecognized character [ on line 7.
Error 03: Unrecognized character ] on line 7.
Error 03: Unrecognized character [ on line 7.
Error 03: Unrecognized character | on line 7.
Error 03: Unrecognized character ] on line 7.
Error 03: Unrecognized character [ on line 8.
Error 03: Unrecognized character | on line 8.
Error 03: Unrecognized character ] on line 8.
Error 03: Unrecognized character [ on line 8.
Error 03: Unrecognized character < on line 8.
Error 03: Unrecognized character > on line 8.
Error 03: Unrecognized character | on line 8.
Error 03: Unrecognized character < on line 8.
Error 03: Unrecognized character > on line 8.
Error 03: Unrecognized character ] on line 8.
Error 03: Unrecognized character [ on line 9.
Error 03: Unrecognized character [ on line 9.
Error 03: Unrecognized character ] on line 9.
Error 03: Unrecognized character | on line 9.
Error 03: Unrecognized character | on line 9.
Error 03: Unrecognized character | on line 9.
Error 03: Unrecognized character ] on line 9.
Error 03: Unrecognized character [ on line 10.
Error 03: Unrecognized character [ on line 10.
Error 03: Unrecognized character < on line 10.
Error 03: Unrecognized character > on line 10.
Error 03: Unrecognized character [ on line 10.
Error 03: Unrecognized character < on line 10.
Error 03: Unrecognized character > on line 10.
Error 03: Unrecognized character ] on line 10.
Error 03: Unrecognized character ] on line 10.
Error 03: Unrecognized character [ on line 10.
Error 03: Unrecognized character ] on line 10.
Error 03: Unrecognized character ] on line 10.
Error 03: Unrecognized character [ on line 11.
Error 03: Unrecognized character ] on line 11.
Error 03: Unrecognized character [ on line 11.
Error 03: Unrecognized character < on line 11.
Error 03: Unrecognized character > on line 11.
Error 03: Unrecognized character [ on line 11.
Error 03: Unrecognized character < on line 11.
Error 03: Unrecognized character > on line 11.
Error 03: Unrecognized character ‚ on line 11.
Error 03: Unrecognized character Ä on line 11.
Error 03: Unrecognized character ¶ on line 11.
Error 03: Unrecognized character ‚ on line 11.
Error 03: Unrecognized character Ä on line 11.
Error 03: Unrecognized character ã on line 11.
Error 03: Unrecognized character ] on line 11.
Error 03: Unrecognized character ] on line 11.
Error 03: Unrecognized character < on line 17.
Error 03: Unrecognized character > on line 17.
Error 03: Unrecognized character * on line 17.
Error 03: Unrecognized character < on line 19.
Error 03: Unrecognized character > on line 19.
Error 03: Unrecognized character < on line 19.
Error 03: Unrecognized character > on line 19.
Error 03: Unrecognized character * on line 19.
Error 03: Unrecognized character < on line 24.
Error 03: Unrecognized character > on line 24.
Error 03: Unrecognized character < on line 27.
Error 03: Unrecognized character > on line 27.
Error 03: Unrecognized character ‚ on line 27.
Error 03: Unrecognized character Ä on line 27.
Error 03: Unrecognized character ¶ on line 27.
Error 03: Unrecognized character ‚ on line 27.
Error 03: Unrecognized character Ä on line 27.
Error 03: Unrecognized character ã on line 27.
Error 03: Unrecognized character < on line 28.
Error 03: Unrecognized character > on line 28.
Error 03: Unrecognized character < on line 28.
Error 03: Unrecognized character > on line 28.
Error 03: Unrecognized character < on line 28.
Error 03: Unrecognized character > on line 28.
Error 03: Unrecognized character < on line 30.
Error 03: Unrecognized character > on line 30.
Error 03: Unrecognized character ~ on line 30.
Error 03: Unrecognized character < on line 32.
Error 03: Unrecognized character > on line 32.
Error 03: Unrecognized character [ on line 32.
Error 03: Unrecognized character < on line 32.
Error 03: Unrecognized character > on line 32.
Error 03: Unrecognized character ] on line 32.
Error 03: Unrecognized character < on line 32.
Error 03: Unrecognized character > on line 32.
Error 03: Unrecognized character < on line 32.
Error 03: Unrecognized character > on line 32.
Error 03: Unrecognized character < on line 32.
Error 03: Unrecognized character > on line 32.
Error 03: Unrecognized character < on line 32.
Error 03: Unrecognized character > on line 32.
Error 03: Unrecognized character ‚ on line 32.
Error 03: Unrecognized character Ä on line 32.
Error 03: Unrecognized character î on line 32.
Error 03: Unrecognized character ‚ on line 32.
Error 03: Unrecognized character Ä on line 32.
Error 03: Unrecognized character ã on line 32.
Error 03: Unrecognized character < on line 32.
Error 03: Unrecognized character > on line 32.
Error 03: Unrecognized character < on line 32.
Error 03: Unrecognized character > on line 32.
Error 03: Unrecognized character < on line 32.
Error 03: Unrecognized character > on line 32.
Error 03: Unrecognized character < on line 32.
Error 03: Unrecognized character > on line 32.
Error 03: Unrecognized character < on line 34.
Error 03: Unrecognized character > on line 34.
Error 03: Unrecognized character ‚ on line 34.
Error 03: Unrecognized character Ä on line 34.
Error 03: Unrecognized character ô on line 34.
Error 03: Unrecognized character * on line 34.
Error 03: Unrecognized character < on line 34.
Error 03: Unrecognized character > on line 34.
Error 03: Unrecognized character < on line 34.
Error 03: Unrecognized character > on line 34.
Error 03: Unrecognized character < on line 34.
Error 03: Unrecognized character > on line 34.
Error 03: Unrecognized character < on line 36.
Error 03: Unrecognized character > on line 36.
Error 03: Unrecognized character < on line 36.
Error 03: Unrecognized character > on line 36.
Error 03: Unrecognized character < on line 38.
Error 03: Unrecognized character > on line 38.
Error 03: Unrecognized character < on line 38.
Error 03: Unrecognized character > on line 38.
Error 03: Unrecognized character < on line 42.
Error 03: Unrecognized character > on line 42.
Error 03: Unrecognized character < on line 42.
Error 03: Unrecognized character > on line 42.
Error 03: Unrecognized character * on line 42.
Error 03: Unrecognized character < on line 42.
Error 03: Unrecognized character > on line 42.
Error 03: Unrecognized character * on line 44.
Error 03: Unrecognized character * on line 46.
Error 03: Unrecognized character ‚ on line 48.
Error 03: Unrecognized character Ä on line 48.
Error 03: Unrecognized character ô on line 48.
Error 03: Unrecognized character { on line 48.
Error 03: Unrecognized character } on line 48.
Error 03: Unrecognized character * on line 48.
Error 03: Unrecognized character * on line 48.
Error 03: Unrecognized character { on line 50.
Error 03: Unrecognized character } on line 50.
Error 03: Unrecognized character * on line 50.
Error 03: Unrecognized character ‚ on line 50.
Error 03: Unrecognized character Ä on line 50.
Error 03: Unrecognized character ô on line 50.
Error 03: Unrecognized character ‚ on line 50.
Error 03: Unrecognized character Ä on line 50.
Error 03: Unrecognized character ô on line 50.
Error 03: Unrecognized character { on line 52.
Error 03: Unrecognized character } on line 52.
Error 03: Unrecognized character * on line 52.
Error 03: Unrecognized character * on line 52.
Error 03: Unrecognized character ‚ on line 54.
Error 03: Unrecognized character Ä on line 54.
Error 03: Unrecognized character ô on line 54.
Error 03: Unrecognized character * on line 54.
Error 03: Unrecognized character < on line 56.
Error 03: Unrecognized character > on line 56.
Error 03: Unrecognized character < on line 56.
Error 03: Unrecognized character > on line 56.
Error 03: Unrecognized character < on line 60.
Error 03: Unrecognized character > on line 60.
Error 03: Unrecognized character < on line 60.
Error 03: Unrecognized character > on line 60.
Error 03: Unrecognized character < on line 60.
Error 03: Unrecognized character > on line 60.
Error 03: Unrecognized character ; on line 63.
Error 03: Unrecognized character < on line 63.
Error 03: Unrecognized character > on line 63.
Error 03: Unrecognized character ‚ on line 66.
Error 03: Unrecognized character Ä on line 66.
Error 03: Unrecognized character ô on line 66.
Error 03: Unrecognized character ‚ on line 66.
Error 03: Unrecognized character Ä on line 66.
Error 03: Unrecognized character ô on line 66.
Error 03: Unrecognized character * on line 66.
Error 03: Unrecognized character * on line 66.
Error 03: Unrecognized character ‚ on line 66.
Error 03: Unrecognized character Ä on line 66.
Error 03: Unrecognized character ô on line 66.
Error 03: Unrecognized character < on line 69.
Error 03: Unrecognized character > on line 69.
Error 03: Unrecognized character [ on line 88.
Error 03: Unrecognized character ] on line 88.
Error 03: Unrecognized character | on line 89.
Error 03: Unrecognized character | on line 89.
Error 03: Unrecognized character [ on line 92.
Error 03: Unrecognized character ] on line 92.
Error 03: Unrecognized character < on line 95.
Error 03: Unrecognized character > on line 95.
Error 03: Unrecognized character < on line 96.
Error 03: Unrecognized character > on line 96.
Error 03: Unrecognized character < on line 97.
Error 03: Unrecognized character > on line 97.
Error 03: Unrecognized character < on line 97.
Error 03: Unrecognized character > on line 97.
Error 03: Unrecognized character < on line 99.
Error 03: Unrecognized character > on line 99.
Error 03: Unrecognized character < on line 100.
Error 03: Unrecognized character > on line 100.
Error 03: Unrecognized character $ on line 101.
Error 03: Unrecognized character [ on line 103.
Error 03: Unrecognized character ] on line 103.
Error 03: Unrecognized character < on line 104.
Error 03: Unrecognized character > on line 104.
Error 03: Unrecognized character < on line 105.
Error 03: Unrecognized character > on line 105.
Error 03: Unrecognized character < on line 105.
Error 03: Unrecognized character > on line 105.
Error 03: Unrecognized character < on line 116.
Error 03: Unrecognized character > on line 116.
Error 03: Unrecognized character < on line 118.
Error 03: Unrecognized character > on line 118.
Error 03: Unrecognized character < on line 118.
Error 03: Unrecognized character > on line 118.
Error 03: Unrecognized character < on line 118.
Error 03: Unrecognized character > on line 118.
Error 03: Unrecognized character < on line 118.
Error 03: Unrecognized character > on line 118.
Error 03: Unrecognized character < on line 120.
Error 03: Unrecognized character > on line 120.
Error 03: Unrecognized character < on line 120.
Error 03: Unrecognized character > on line 120.
Error 03: Unrecognized character < on line 124.
Error 03: Unrecognized character > on line 124.
Error 03: Unrecognized character ‚ on line 126.
Error 03: Unrecognized character Ä on line 126.
Error 03: Unrecognized character ô on line 126.
Error 03: Unrecognized character ‚ on line 126.
Error 03: Unrecognized character Ä on line 126.
Error 03: Unrecognized character ô on line 126.
Error 03: Unrecognized character ‚ on line 126.
Error 03: Unrecognized character Ä on line 126.
Error 03: Unrecognized character ô on line 126.
Error 03: Unrecognized character ‚ on line 126.
Error 03: Unrecognized character Ä on line 126.
Error 03: Unrecognized character ô on line 126.
Error 03: Unrecognized character & on line 126.
Error 03: Unrecognized character $ on line 130.
Error 03: Unrecognized character ‚ on line 132.
Error 03: Unrecognized character Ä on line 132.
Error 03: Unrecognized character ô on line 132.
Error 03: Unrecognized character ‚ on line 135.
Error 03: Unrecognized character Ä on line 135.
Error 03: Unrecognized character ô on line 135.
Error 03: Unrecognized character # on line 137.
Error 03: Unrecognized character # on line 138.
Error 03: Unrecognized character # on line 139.
Error 03: Unrecognized character ‚ on line 141.
Error 03: Unrecognized character Ä on line 141.
Error 03: Unrecognized character ô on line 141.
Error 03: Unrecognized character [ on line 143.
Error 03: Unrecognized character < on line 143.
Error 03: Unrecognized character > on line 143.
Error 03: Unrecognized character ] on line 143.
Error 03: Unrecognized character ; on line 149.
Error 03: Unrecognized character * on line 151.
Error 03: Unrecognized character < on line 151.
Error 03: Unrecognized character > on line 151.
Error 03: Unrecognized character [ on line 153.
Error 03: Unrecognized character ] on line 153.
Error 03: Unrecognized character < on line 158.
Error 03: Unrecognized character > on line 158.
Error 03: Unrecognized character < on line 158.
Error 03: Unrecognized character > on line 158.
Error 03: Unrecognized character < on line 162.
Error 03: Unrecognized character > on line 162.
Error 03: Unrecognized character < on line 163.
Error 03: Unrecognized character > on line 163.
Error 03: Unrecognized character < on line 167.
Error 03: Unrecognized character > on line 167.
Error 03: Unrecognized character [ on line 169.
Error 03: Unrecognized character ] on line 169.
Error 03: Unrecognized character | on line 184.
Error 03: Unrecognized character | on line 184.
Error 03: Unrecognized character | on line 184.
Error 03: Unrecognized character [ on line 187.
Error 03: Unrecognized character ] on line 187.
Error 03: Unrecognized character ; on line 201.
Error 03: Unrecognized character [ on line 207.
Error 03: Unrecognized character ] on line 207.
Error 03: Unrecognized character [ on line 207.
Error 03: Unrecognized character ] on line 207.
Error 03: Unrecognized character [ on line 209.
Error 03: Unrecognized character ] on line 209.
Error 03: Unrecognized character [ on line 211.
Error 03: Unrecognized character ] on line 211.
Error 03: Unrecognized character [ on line 211.
Error 03: Unrecognized character ] on line 211.
Error 03: Unrecognized character [ on line 213.
Error 03: Unrecognized character ] on line 213.
Error 03: Unrecognized character [ on line 213.
Error 03: Unrecognized character ] on line 213.
Error 03: Unrecognized character [ on line 217.
Error 03: Unrecognized character ] on line 217.
Error 03: Unrecognized character ~ on line 221.
Error 03: Unrecognized character [ on line 223.
Error 03: Unrecognized character ] on line 223.
Error 03: Unrecognized character [ on line 223.
Error 03: Unrecognized character ] on line 223.
Error 03: Unrecognized character ~ on line 223.
Error 03: Unrecognized character [ on line 223.
Error 03: Unrecognized character ] on line 223.
Error 03: Unrecognized character [ on line 225.
Error 03: Unrecognized character ] on line 225.
Error 03: Unrecognized character ~ on line 225.
Error 03: Unrecognized character [ on line 225.
Error 03: Unrecognized character ] on line 225.
Error 03: Unrecognized character [ on line 227.
Error 03: Unrecognized character ] on line 227.
Error 03: Unrecognized character ~ on line 227.
Error 03: Unrecognized character [ on line 227.
Error 03: Unrecognized character ] on line 227.
Error 03: Unrecognized character ‚ on line 239.
Error 03: Unrecognized character Ä on line 239.
Error 03: Unrecognized character ô on line 239.
Error 03: Unrecognized character < on line 239.
Error 03: Unrecognized character > on line 239.
Error 03: Unrecognized character < on line 241.
Error 03: Unrecognized character > on line 241.
Error 03: Unrecognized character < on line 241.
Error 03: Unrecognized character > on line 241.
Error 03: Unrecognized character < on line 243.
Error 03: Unrecognized character > on line 243.
Error 03: Unrecognized character [ on line 249.
Error 03: Unrecognized character | on line 249.
Error 03: Unrecognized character | on line 249.
Error 03: Unrecognized character ] on line 249.
Error 03: Unrecognized character [ on line 249.
Error 03: Unrecognized character ] on line 249.
Error 03: Unrecognized character [ on line 249.
Error 03: Unrecognized character ] on line 249.
Error 03: Unrecognized character [ on line 249.
Error 03: Unrecognized character | on line 249.
Error 03: Unrecognized character ] on line 249.
Error 03: Unrecognized character [ on line 249.
Error 03: Unrecognized character < on line 249.
Error 03: Unrecognized character > on line 249.
Error 03: Unrecognized character ] on line 249.
Error 03: Unrecognized character [ on line 250.
Error 03: Unrecognized character < on line 250.
Error 03: Unrecognized character > on line 250.
Error 03: Unrecognized character ] on line 250.
Error 03: Unrecognized character [ on line 250.
Error 03: Unrecognized character | on line 250.
Error 03: Unrecognized character ] on line 250.
Error 03: Unrecognized character [ on line 250.
Error 03: Unrecognized character | on line 250.
Error 03: Unrecognized character ] on line 250.
Error 03: Unrecognized character [ on line 250.
Error 03: Unrecognized character ] on line 250.
Error 03: Unrecognized character [ on line 250.
Error 03: Unrecognized character | on line 250.
Error 03: Unrecognized character ] on line 250.
Error 03: Unrecognized character [ on line 251.
Error 03: Unrecognized character | on line 251.
Error 03: Unrecognized character ] on line 251.
Error 03: Unrecognized character [ on line 251.
Error 03: Unrecognized character < on line 251.
Error 03: Unrecognized character > on line 251.
Error 03: Unrecognized character | on line 251.
Error 03: Unrecognized character < on line 251.
Error 03: Unrecognized character > on line 251.
Error 03: Unrecognized character ] on line 251.
Error 03: Unrecognized character [ on line 252.
Error 03: Unrecognized character [ on line 252.
Error 03: Unrecognized character ] on line 252.
Error 03: Unrecognized character | on line 252.
Error 03: Unrecognized character | on line 252.
Error 03: Unrecognized character | on line 252.
Error 03: Unrecognized character ] on line 252.
Error 03: Unrecognized character [ on line 253.
Error 03: Unrecognized character [ on line 253.
Error 03: Unrecognized character < on line 253.
Error 03: Unrecognized character > on line 253.
Error 03: Unrecognized character [ on line 253.
Error 03: Unrecognized character < on line 253.
Error 03: Unrecognized character > on line 253.
Error 03: Unrecognized character ] on line 253.
Error 03: Unrecognized character ] on line 253.
Error 03: Unrecognized character [ on line 253.
Error 03: Unrecognized character ] on line 253.
Error 03: Unrecognized character ] on line 253.
Error 03: Unrecognized character [ on line 254.
Error 03: Unrecognized character ] on line 254.
Error 03: Unrecognized character [ on line 254.
Error 03: Unrecognized character < on line 254.
Error 03: Unrecognized character > on line 254.
Error 03: Unrecognized character [ on line 254.
Error 03: Unrecognized character < on line 254.
Error 03: Unrecognized character > on line 254.
Error 03: Unrecognized character ‚ on line 254.
Error 03: Unrecognized character Ä on line 254.
Error 03: Unrecognized character ¶ on line 254.
Error 03: Unrecognized character ‚ on line 254.
Error 03: Unrecognized character Ä on line 254.
Error 03: Unrecognized character ã on line 254.
Error 03: Unrecognized character ] on line 254.
Error 03: Unrecognized character ] on line 254.
Error 03: Unrecognized character < on line 260.
Error 03: Unrecognized character > on line 260.
Error 03: Unrecognized character * on line 260.
Error 03: Unrecognized character < on line 262.
Error 03: Unrecognized character > on line 262.
Error 03: Unrecognized character < on line 262.
Error 03: Unrecognized character > on line 262.
Error 03: Unrecognized character * on line 262.
Error 03: Unrecognized character < on line 267.
Error 03: Unrecognized character > on line 267.
Error 03: Unrecognized character < on line 270.
Error 03: Unrecognized character > on line 270.
Error 03: Unrecognized character ‚ on line 270.
Error 03: Unrecognized character Ä on line 270.
Error 03: Unrecognized character ¶ on line 270.
Error 03: Unrecognized character ‚ on line 270.
Error 03: Unrecognized character Ä on line 270.
Error 03: Unrecognized character ã on line 270.
Error 03: Unrecognized character < on line 271.
Error 03: Unrecognized character > on line 271.
Error 03: Unrecognized character < on line 271.
Error 03: Unrecognized character > on line 271.
Error 03: Unrecognized character < on line 271.
Error 03: Unrecognized character > on line 271.
Error 03: Unrecognized character < on line 273.
Error 03: Unrecognized character > on line 273.
Error 03: Unrecognized character ~ on line 273.
Error 03: Unrecognized character < on line 275.
Error 03: Unrecognized character > on line 275.
Error 03: Unrecognized character [ on line 275.
Error 03: Unrecognized character < on line 275.
Error 03: Unrecognized character > on line 275.
Error 03: Unrecognized character ] on line 275.
Error 03: Unrecognized character < on line 275.
Error 03: Unrecognized character > on line 275.
Error 03: Unrecognized character < on line 275.
Error 03: Unrecognized character > on line 275.
Error 03: Unrecognized character < on line 275.
Error 03: Unrecognized character > on line 275.
Error 03: Unrecognized character < on line 275.
Error 03: Unrecognized character > on line 275.
Error 03: Unrecognized character ‚ on line 275.
Error 03: Unrecognized character Ä on line 275.
Error 03: Unrecognized character î on line 275.
Error 03: Unrecognized character ‚ on line 275.
Error 03: Unrecognized character Ä on line 275.
Error 03: Unrecognized character ã on line 275.
Error 03: Unrecognized character < on line 275.
Error 03: Unrecognized character > on line 275.
Error 03: Unrecognized character < on line 275.
Error 03: Unrecognized character > on line 275.
Error 03: Unrecognized character < on line 275.
Error 03: Unrecognized character > on line 275.
Error 03: Unrecognized character < on line 275.
Error 03: Unrecognized character > on line 275.
Error 03: Unrecognized character < on line 277.
Error 03: Unrecognized character > on line 277.
Error 03: Unrecognized character ‚ on line 277.
Error 03: Unrecognized character Ä on line 277.
Error 03: Unrecognized character ô on line 277.
Error 03: Unrecognized character * on line 277.
Error 03: Unrecognized character < on line 277.
Error 03: Unrecognized character > on line 277.
Error 03: Unrecognized character < on line 277.
Error 03: Unrecognized character > on line 277.
Error 03: Unrecognized character < on line 277.
Error 03: Unrecognized character > on line 277.
Error 03: Unrecognized character < on line 279.
Error 03: Unrecognized character > on line 279.
Error 03: Unrecognized character < on line 279.
Error 03: Unrecognized character > on line 279.
Error 03: Unrecognized character < on line 281.
Error 03: Unrecognized character > on line 281.
Error 03: Unrecognized character < on line 281.
Error 03: Unrecognized character > on line 281.
Error 03: Unrecognized character < on line 285.
Error 03: Unrecognized character > on line 285.
Error 03: Unrecognized character < on line 285.
Error 03: Unrecognized character > on line 285.
Error 03: Unrecognized character * on line 285.
Error 03: Unrecognized character < on line 285.
Error 03: Unrecognized character > on line 285.
Error 03: Unrecognized character * on line 287.
Error 03: Unrecognized character * on line 289.
Error 03: Unrecognized character ‚ on line 291.
Error 03: Unrecognized character Ä on line 291.
Error 03: Unrecognized character ô on line 291.
Error 03: Unrecognized character { on line 291.
Error 03: Unrecognized character } on line 291.
Error 03: Unrecognized character * on line 291.
Error 03: Unrecognized character * on line 291.
Error 03: Unrecognized character { on line 293.
Error 03: Unrecognized character } on line 293.
Error 03: Unrecognized character * on line 293.
Error 03: Unrecognized character ‚ on line 293.
Error 03: Unrecognized character Ä on line 293.
Error 03: Unrecognized character ô on line 293.
Error 03: Unrecognized character ‚ on line 293.
Error 03: Unrecognized character Ä on line 293.
Error 03: Unrecognized character ô on line 293.
Error 03: Unrecognized character { on line 295.
Error 03: Unrecognized character } on line 295.
Error 03: Unrecognized character * on line 295.
Error 03: Unrecognized character * on line 295.
Error 03: Unrecognized character ‚ on line 297.
Error 03: Unrecognized character Ä on line 297.
Error 03: Unrecognized character ô on line 297.
Error 03: Unrecognized character * on line 297.
Error 03: Unrecognized character < on line 299.
Error 03: Unrecognized character > on line 299.
Error 03: Unrecognized character < on line 299.
Error 03: Unrecognized character > on line 299.
Error 03: Unrecognized character < on line 303.
Error 03: Unrecognized character > on line 303.
Error 03: Unrecognized character < on line 303.
Error 03: Unrecognized character > on line 303.
Error 03: Unrecognized character < on line 303.
Error 03: Unrecognized character > on line 303.
Error 03: Unrecognized character ; on line 306.
Error 03: Unrecognized character < on line 306.
Error 03: Unrecognized character > on line 306.
Error 03: Unrecognized character ‚ on line 309.
Error 03: Unrecognized character Ä on line 309.
Error 03: Unrecognized character ô on line 309.
Error 03: Unrecognized character ‚ on line 309.
Error 03: Unrecognized character Ä on line 309.
Error 03: Unrecognized character ô on line 309.
Error 03: Unrecognized character * on line 309.
Error 03: Unrecognized character * on line 309.
Error 03: Unrecognized character ‚ on line 309.
Error 03: Unrecognized character Ä on line 309.
Error 03: Unrecognized character ô on line 309.
Error 03: Unrecognized character < on line 312.
Error 03: Unrecognized character > on line 312.
Error 03: Unrecognized character [ on line 331.
Error 03: Unrecognized character ] on line 331.
Error 03: Unrecognized character | on line 332.
Error 03: Unrecognized character | on line 332.
Error 03: Unrecognized character [ on line 335.
Error 03: Unrecognized character ] on line 335.
Error 03: Unrecognized character < on line 338.
Error 03: Unrecognized character > on line 338.
Error 03: Unrecognized character < on line 339.
Error 03: Unrecognized character > on line 339.
Error 03: Unrecognized character < on line 340.
Error 03: Unrecognized character > on line 340.
Error 03: Unrecognized character < on line 340.
Error 03: Unrecognized character > on line 340.
Error 03: Unrecognized character < on line 342.
Error 03: Unrecognized character > on line 342.
Error 03: Unrecognized character < on line 343.
Error 03: Unrecognized character > on line 343.
Error 03: Unrecognized character $ on line 344.
Error 03: Unrecognized character [ on line 346.
Error 03: Unrecognized character ] on line 346.
Error 03: Unrecognized character < on line 347.
Error 03: Unrecognized character > on line 347.
Error 03: Unrecognized character < on line 348.
Error 03: Unrecognized character > on line 348.
Error 03: Unrecognized character < on line 348.
Error 03: Unrecognized character > on line 348.
Error 03: Unrecognized character < on line 359.
Error 03: Unrecognized character > on line 359.
Error 03: Unrecognized character < on line 361.
Error 03: Unrecognized character > on line 361.
Error 03: Unrecognized character < on line 361.
Error 03: Unrecognized character > on line 361.
Error 03: Unrecognized character < on line 361.
Error 03: Unrecognized character > on line 361.
Error 03: Unrecognized character < on line 361.
Error 03: Unrecognized character > on line 361.
Error 03: Unrecognized character < on line 363.
Error 03: Unrecognized character > on line 363.
Error 03: Unrecognized character < on line 363.
Error 03: Unrecognized character > on line 363.
Error 03: Unrecognized character < on line 367.
Error 03: Unrecognized character > on line 367.
Error 03: Unrecognized character ‚ on line 369.
Error 03: Unrecognized character Ä on line 369.
Error 03: Unrecognized character ô on line 369.
Error 03: Unrecognized character ‚ on line 369.
Error 03: Unrecognized character Ä on line 369.
Error 03: Unrecognized character ô on line 369.
Error 03: Unrecognized character ‚ on line 369.
Error 03: Unrecognized character Ä on line 369.
Error 03: Unrecognized character ô on line 369.
Error 03: Unrecognized character ‚ on line 369.
Error 03: Unrecognized character Ä on line 369.
Error 03: Unrecognized character ô on line 369.
Error 03: Unrecognized character & on line 369.
Error 03: Unrecognized character $ on line 373.
Error 03: Unrecognized character ‚ on line 375.
Error 03: Unrecognized character Ä on line 375.
Error 03: Unrecognized character ô on line 375.
Error 03: Unrecognized character ‚ on line 378.
Error 03: Unrecognized character Ä on line 378.
Error 03: Unrecognized character ô on line 378.
Error 03: Unrecognized character # on line 380.
Error 03: Unrecognized character # on line 381.
Error 03: Unrecognized character # on line 382.
Error 03: Unrecognized character ‚ on line 384.
Error 03: Unrecognized character Ä on line 384.
Error 03: Unrecognized character ô on line 384.
Error 03: Unrecognized character [ on line 386.
Error 03: Unrecognized character < on line 386.
Error 03: Unrecognized character > on line 386.
Error 03: Unrecognized character ] on line 386.
Error 03: Unrecognized character ; on line 392.
Error 03: Unrecognized character * on line 394.
Error 03: Unrecognized character < on line 394.
Error 03: Unrecognized character > on line 394.
Error 03: Unrecognized character [ on line 396.
Error 03: Unrecognized character ] on line 396.
Error 03: Unrecognized character < on line 401.
Error 03: Unrecognized character > on line 401.
Error 03: Unrecognized character < on line 401.
Error 03: Unrecognized character > on line 401.
Error 03: Unrecognized character < on line 405.
Error 03: Unrecognized character > on line 405.
Error 03: Unrecognized character < on line 406.
Error 03: Unrecognized character > on line 406.
Error 03: Unrecognized character < on line 410.
Error 03: Unrecognized character > on line 410.
Error 03: Unrecognized character [ on line 412.
Error 03: Unrecognized character ] on line 412.
Error 03: Unrecognized character | on line 427.
Error 03: Unrecognized character | on line 427.
Error 03: Unrecognized character | on line 427.
Error 03: Unrecognized character [ on line 430.
Error 03: Unrecognized character ] on line 430.
Error 03: Unrecognized character ; on line 444.
Error 03: Unrecognized character [ on line 450.
Error 03: Unrecognized character ] on line 450.
Error 03: Unrecognized character [ on line 450.
Error 03: Unrecognized character ] on line 450.
Error 03: Unrecognized character [ on line 452.
Error 03: Unrecognized character ] on line 452.
Error 03: Unrecognized character [ on line 454.
Error 03: Unrecognized character ] on line 454.
Error 03: Unrecognized character [ on line 454.
Error 03: Unrecognized character ] on line 454.
Error 03: Unrecognized character [ on line 456.
Error 03: Unrecognized character ] on line 456.
Error 03: Unrecognized character [ on line 456.
Error 03: Unrecognized character ] on line 456.
Error 03: Unrecognized character [ on line 460.
Error 03: Unrecognized character ] on line 460.
Error 03: Unrecognized character ~ on line 464.
Error 03: Unrecognized character [ on line 466.
Error 03: Unrecognized character ] on line 466.
Error 03: Unrecognized character [ on line 466.
Error 03: Unrecognized character ] on line 466.
Error 03: Unrecognized character ~ on line 466.
Error 03: Unrecognized character [ on line 466.
Error 03: Unrecognized character ] on line 466.
Error 03: Unrecognized character [ on line 468.
Error 03: Unrecognized character ] on line 468.
Error 03: Unrecognized character ~ on line 468.
Error 03: Unrecognized character [ on line 468.
Error 03: Unrecognized character ] on line 468.
Error 03: Unrecognized character [ on line 470.
Error 03: Unrecognized character ] on line 470.
Error 03: Unrecognized character ~ on line 470.
Error 03: Unrecognized character [ on line 470.
Error 03: Unrecognized character ] on line 470.
Error 03: Unrecognized character ‚ on line 482.
Error 03: Unrecognized character Ä on line 482.
Error 03: Unrecognized character ô on line 482.
Error 03: Unrecognized character < on line 482.
Error 03: Unrecognized character > on line 482.
Error 03: Unrecognized character < on line 484.
Error 03: Unrecognized character > on line 484.
Error 03: Unrecognized character < on line 484.
Error 03: Unrecognized character > on line 484.
Error 03: Unrecognized character < on line 486.
Error 03: Unrecognized character > on line 486.
Error 03: Unrecognized character [ on line 490.
Error 03: Unrecognized character < on line 490.
Error 03: Unrecognized character > on line 490.
Error 03: Unrecognized character ] on line 490.
Error 03: Unrecognized character < on line 491.
Error 03: Unrecognized character > on line 491.
Error 03: Unrecognized character [ on line 494.
Error 03: Unrecognized character ] on line 494.
Error 03: Unrecognized character [ on line 501.
Error 03: Unrecognized character < on line 501.
Error 03: Unrecognized character > on line 501.
Error 03: Unrecognized character ] on line 501.
Error 03: Unrecognized character < on line 502.
Error 03: Unrecognized character > on line 502.
Error 03: Unrecognized character [ on line 505.
Error 03: Unrecognized character ] on line 505.
Error 03: Unrecognized character < on line 510.
Error 03: Unrecognized character > on line 510.
Error 03: Unrecognized character $ on line 512.
Error 03: Unrecognized character _ on line 512.
Error 03: Unrecognized character $ on line 514.
Error 03: Unrecognized character _ on line 514.
Error 03: Unrecognized character $ on line 516.
Error 03: Unrecognized character _ on line 516.
Error 03: Unrecognized character $ on line 521.
Error 03: Unrecognized character _ on line 521.
Error 03: Unrecognized character [ on line 523.
Error 03: Unrecognized character < on line 523.
Error 03: Unrecognized character > on line 523.
Error 03: Unrecognized character ] on line 523.
Error 03: Unrecognized character < on line 524.
Error 03: Unrecognized character > on line 524.
Error 03: Unrecognized character < on line 525.
Error 03: Unrecognized character > on line 525.
Error 03: Unrecognized character < on line 526.
Error 03: Unrecognized character > on line 526.
Error 03: Unrecognized character < on line 527.
Error 03: Unrecognized character > on line 527.
Error 03: Unrecognized character < on line 528.
Error 03: Unrecognized character > on line 528.
Error 03: Unrecognized character < on line 528.
Error 03: Unrecognized character > on line 528.
Error 03: Unrecognized character $ on line 530.
Error 03: Unrecognized character _ on line 530.
Error 03: Unrecognized character $ on line 531.
Error 03: Unrecognized character _ on line 531.
Error 03: Unrecognized character < on line 534.
Error 03: Unrecognized character > on line 534.
Error 03: Unrecognized character < on line 535.
Error 03: Unrecognized character > on line 535.
Error 03: Unrecognized character $ on line 538.
Error 03: Unrecognized character _ on line 538.
Error 03: Unrecognized character $ on line 539.
Error 03: Unrecognized character _ on line 539.
Error 03: Unrecognized character < on line 541.
Error 03: Unrecognized character > on line 541.
Error 03: Unrecognized character # on line 541.
Error 03: Unrecognized character < on line 541.
Error 03: Unrecognized character > on line 541.
Error 03: Unrecognized character < on line 542.
Error 03: Unrecognized character > on line 542.
Error 03: Unrecognized character ; on line 542.
Error 03: Unrecognized character # on line 542.
Error 03: Unrecognized character < on line 542.
Error 03: Unrecognized character > on line 542.
Error 03: Unrecognized character ‚ on line 544.
Error 03: Unrecognized character Ä on line 544.
Error 03: Unrecognized character ô on line 544.
Error 03: Unrecognized character < on line 544.
Error 03: Unrecognized character > on line 544.
Error 03: Unrecognized character $ on line 544.
Error 03: Unrecognized character _ on line 544.
Error 03: Unrecognized character < on line 544.
Error 03: Unrecognized character > on line 544.
Error 03: Unrecognized character < on line 548.
Error 03: Unrecognized character > on line 548.
Error 03: Unrecognized character < on line 548.
Error 03: Unrecognized character > on line 548.
Error 03: Unrecognized character < on line 551.
Error 03: Unrecognized character > on line 551.
Error 03: Unrecognized character ; on line 553.
Error 03: Unrecognized character < on line 557.
Error 03: Unrecognized character > on line 557.
Error 03: Unrecognized character < on line 557.
Error 03: Unrecognized character > on line 557.
Error 03: Unrecognized character < on line 557.
Error 03: Unrecognized character > on line 557.
Error 03: Unrecognized character > on line 557.
Error 03: Unrecognized character < on line 557.
Error 03: Unrecognized character > on line 557.
Error 03: Unrecognized character < on line 557.
Error 03: Unrecognized character > on line 557.
Error 03: Unrecognized character < on line 560.
Error 03: Unrecognized character > on line 560.
Error 03: Unrecognized character \ on line 560.
Error 03: Unrecognized character < on line 560.
Error 03: Unrecognized character > on line 560.
Error 03: Unrecognized character < on line 560.
Error 03: Unrecognized character > on line 560.
Error 03: Unrecognized character \ on line 560.
Error 03: Unrecognized character < on line 560.
Error 03: Unrecognized character > on line 560.
Error 03: Unrecognized character < on line 560.
Error 03: Unrecognized character > on line 560.
Error 03: Unrecognized character ; on line 567.
Error 03: Unrecognized character ; on line 570.
Error 03: Unrecognized character ; on line 573.
Error 03: Unrecognized character * on line 575.
Error 03: Unrecognized character ; on line 576.
Error 03: Unrecognized character ! on line 578.
Error 03: Unrecognized character ; on line 579.
Error 03: Unrecognized character < on line 585.
Error 03: Unrecognized character > on line 585.
Error 03: Unrecognized character < on line 585.
Error 03: Unrecognized character > on line 585.
Error 03: Unrecognized character < on line 585.
Error 03: Unrecognized character > on line 585.
Error 03: Unrecognized character < on line 585.
Error 03: Unrecognized character > on line 585.
Error 03: Unrecognized character < on line 599.
Error 03: Unrecognized character > on line 599.
Error 03: Unrecognized character < on line 602.
Error 03: Unrecognized character > on line 602.
Error 03: Unrecognized character < on line 645.
Error 03: Unrecognized character > on line 645.
Error 03: Unrecognized character < on line 645.
Error 03: Unrecognized character > on line 645.
Error 03: Unrecognized character ‚ on line 645.
Error 03: Unrecognized character Ä on line 645.
Error 03: Unrecognized character ô on line 645.
Error 03: Unrecognized character < on line 648.
Error 03: Unrecognized character > on line 648.
Error 03: Unrecognized character < on line 650.
Error 03: Unrecognized character > on line 650.
Error 03: Unrecognized character < on line 652.
Error 03: Unrecognized character > on line 652.
Error 03: Unrecognized character < on line 655.
Error 03: Unrecognized character > on line 655.
Error 03: Unrecognized character ; on line 664.
Error 03: Unrecognized character < on line 666.
Error 03: Unrecognized character > on line 666.
Error 03: Unrecognized character ; on line 676.
Error 03: Unrecognized character ‚ on line 682.
Error 03: Unrecognized character Ä on line 682.
Error 03: Unrecognized character ô on line 682.
Error 03: Unrecognized character \ on line 685.
Error 03: Unrecognized character ; on line 695.
Error 03: Unrecognized character ‚ on line 699.
Error 03: Unrecognized character Ä on line 699.
Error 03: Unrecognized character ô on line 699.
Error 03: Unrecognized character # on line 701.
Error 03: Unrecognized character ‚ on line 726.
Error 03: Unrecognized character Ä on line 726.
Error 03: Unrecognized character ô on line 726.
Error 03: Unrecognized character ‚ on line 726.
Error 03: Unrecognized character Ä on line 726.
Error 03: Unrecognized character ò on line 726.
Error 03: Unrecognized character ‚ on line 726.
Error 03: Unrecognized character Ä on line 726.
Error 03: Unrecognized character ô on line 726.
Error 03: Unrecognized character √ on line 735.
Error 03: Unrecognized character © on line 735.
Error 03: Unrecognized character ‚ on line 737.
Error 03: Unrecognized character Ä on line 737.
Error 03: Unrecognized character ô on line 737.
Error 03: Unrecognized character ‚ on line 737.
Error 03: Unrecognized character Ä on line 737.
Error 03: Unrecognized character ô on line 737.
Error 03: Unrecognized character ‚ on line 739.
Error 03: Unrecognized character Ä on line 739.
Error 03: Unrecognized character ú on line 739.
Error 03: Unrecognized character ‚ on line 739.
Error 03: Unrecognized character Ä on line 739.
Error 03: Unrecognized character ù on line 739.
Error 03: Unrecognized character ‚ on line 741.
Error 03: Unrecognized character Ä on line 741.
Error 03: Unrecognized character ô on line 741.
Error 03: Unrecognized character ‚ on line 741.
Error 03: Unrecognized character Ä on line 741.
Error 03: Unrecognized character ú on line 741.
Error 03: Unrecognized character ‚ on line 741.
Error 03: Unrecognized character Ä on line 741.
Error 03: Unrecognized character ù on line 741.
Error 03: Unrecognized character ‚ on line 743.
Error 03: Unrecognized character Ä on line 743.
Error 03: Unrecognized character ú on line 743.
Error 03: Unrecognized character ‚ on line 743.
Error 03: Unrecognized character Ä on line 743.
Error 03: Unrecognized character ù on line 743.
Error 03: Unrecognized character ‚ on line 745.
Error 03: Unrecognized character Ä on line 745.
Error 03: Unrecognized character ú on line 745.
Error 03: Unrecognized character ‚ on line 745.
Error 03: Unrecognized character Ä on line 745.
Error 03: Unrecognized character ù on line 745.
Error 03: Unrecognized character ‚ on line 747.
Error 03: Unrecognized character Ä on line 747.
Error 03: Unrecognized character ô on line 747.
Error 03: Unrecognized character ‚ on line 747.
Error 03: Unrecognized character Ä on line 747.
Error 03: Unrecognized character ô on line 747.
Error 03: Unrecognized character ‚ on line 747.
Error 03: Unrecognized character Ä on line 747.
Error 03: Unrecognized character ú on line 747.
Error 03: Unrecognized character ‚ on line 747.
Error 03: Unrecognized character Ä on line 747.
Error 03: Unrecognized character ù on line 747.
Error 03: Unrecognized character ‚ on line 752.
Error 03: Unrecognized character Ä on line 752.
Error 03: Unrecognized character ú on line 752.
Error 03: Unrecognized character ‚ on line 752.
Error 03: Unrecognized character Ä on line 752.
Error 03: Unrecognized character ¶ on line 752.
Error 03: Unrecognized character ‚ on line 752.
Error 03: Unrecognized character Ä on line 752.
Error 03: Unrecognized character ò on line 752.
Error 03: Unrecognized character ‚ on line 752.
Error 03: Unrecognized character Ä on line 752.
Error 03: Unrecognized character ô on line 752.
Error 03: Unrecognized character ‚ on line 752.
Error 03: Unrecognized character Ä on line 752.
Error 03: Unrecognized character ô on line 752.
Error 03: Unrecognized character ‚ on line 754.
Error 03: Unrecognized character Ä on line 754.
Error 03: Unrecognized character ú on line 754.
Error 03: Unrecognized character ‚ on line 754.
Error 03: Unrecognized character Ä on line 754.
Error 03: Unrecognized character ô on line 754.
Error 03: Unrecognized character ‚ on line 754.
Error 03: Unrecognized character Ä on line 754.
Error 03: Unrecognized character ù on line 754.
Error 03: Unrecognized character ‚ on line 756.
Error 03: Unrecognized character Ä on line 756.
Error 03: Unrecognized character ú on line 756.
Error 03: Unrecognized character ‚ on line 756.
Error 03: Unrecognized character Ä on line 756.
Error 03: Unrecognized character ù on line 756.
Error 03: Unrecognized character ‚ on line 758.
Error 03: Unrecognized character Ä on line 758.
Error 03: Unrecognized character ú on line 758.
Error 03: Unrecognized character ‚ on line 758.
Error 03: Unrecognized character Ä on line 758.
Error 03: Unrecognized character ô on line 758.
Error 03: Unrecognized character ‚ on line 758.
Error 03: Unrecognized character Ä on line 758.
Error 03: Unrecognized character ô on line 758.
Error 03: Unrecognized character ‚ on line 758.
Error 03: Unrecognized character Ä on line 758.
Error 03: Unrecognized character ô on line 758.
Error 03: Unrecognized character ‚ on line 758.
Error 03: Unrecognized character Ä on line 758.
Error 03: Unrecognized character ì on line 758.
Error 03: Unrecognized character ‚ on line 758.
Error 03: Unrecognized character Ä on line 758.
Error 03: Unrecognized character ù on line 758.
Error 03: Unrecognized character ‚ on line 762.
Error 03: Unrecognized character Ä on line 762.
Error 03: Unrecognized character ô on line 762.
Error 03: Unrecognized character ‚ on line 762.
Error 03: Unrecognized character Ä on line 762.
Error 03: Unrecognized character ú on line 762.
Error 03: Unrecognized character ‚ on line 762.
Error 03: Unrecognized character Ä on line 762.
Error 03: Unrecognized character ù on line 762.
Error 03: Unrecognized character ‚ on line 764.
Error 03: Unrecognized character Ä on line 764.
Error 03: Unrecognized character ú on line 764.
Error 03: Unrecognized character ‚ on line 764.
Error 03: Unrecognized character Ä on line 764.
Error 03: Unrecognized character ô on line 764.
Error 03: Unrecognized character ‚ on line 764.
Error 03: Unrecognized character Ä on line 764.
Error 03: Unrecognized character ù on line 764.
Error 03: Unrecognized character ‚ on line 766.
Error 03: Unrecognized character Ä on line 766.
Error 03: Unrecognized character ú on line 766.
Error 03: Unrecognized character ‚ on line 766.
Error 03: Unrecognized character Ä on line 766.
Error 03: Unrecognized character ù on line 766.
Error 03: Unrecognized character ‚ on line 769.
Error 03: Unrecognized character Ä on line 769.
Error 03: Unrecognized character ô on line 769.
Error 03: Unrecognized character ‚ on line 769.
Error 03: Unrecognized character Ä on line 769.
Error 03: Unrecognized character ú on line 769.
Error 03: Unrecognized character ‚ on line 769.
Error 03: Unrecognized character Ä on line 769.
Error 03: Unrecognized character ù on line 769.
Error 03: Unrecognized character ‚ on line 769.
Error 03: Unrecognized character Ä on line 769.
Error 03: Unrecognized character ô on line 769.
Error 03: Unrecognized character ‚ on line 773.
Error 03: Unrecognized character Ä on line 773.
Error 03: Unrecognized character ú on line 773.
Error 03: Unrecognized character ‚ on line 773.
Error 03: Unrecognized character Ä on line 773.
Error 03: Unrecognized character ì on line 773.
Error 03: Unrecognized character ‚ on line 773.
Error 03: Unrecognized character Ä on line 773.
Error 03: Unrecognized character ì on line 773.
Error 03: Unrecognized character ‚ on line 773.
Error 03: Unrecognized character Ä on line 773.
Error 03: Unrecognized character ù on line 773.
Error 03: Unrecognized character ‚ on line 775.
Error 03: Unrecognized character Ä on line 775.
Error 03: Unrecognized character ô on line 775.
Error 03: Unrecognized character ‚ on line 781.
Error 03: Unrecognized character Ä on line 781.
Error 03: Unrecognized character ô on line 781.
Error 03: Unrecognized character ‚ on line 783.
Error 03: Unrecognized character Ä on line 783.
Error 03: Unrecognized character ú on line 783.
Error 03: Unrecognized character ‚ on line 785.
Error 03: Unrecognized character Ä on line 785.
Error 03: Unrecognized character ú on line 785.
Error 03: Unrecognized character ‚ on line 785.
Error 03: Unrecognized character Ä on line 785.
Error 03: Unrecognized character ô on line 785.
Error 03: Unrecognized character ‚ on line 785.
Error 03: Unrecognized character Ä on line 785.
Error 03: Unrecognized character ù on line 785.
Error 03: Unrecognized character ‚ on line 787.
Error 03: Unrecognized character Ä on line 787.
Error 03: Unrecognized character ¶ on line 787.
Error 03: Unrecognized character ‚ on line 787.
Error 03: Unrecognized character Ä on line 787.
Error 03: Unrecognized character ô on line 787.
Error 03: Unrecognized character ‚ on line 787.
Error 03: Unrecognized character Ä on line 787.
Error 03: Unrecognized character ì on line 787.
Error 03: Unrecognized character ‚ on line 790.
Error 03: Unrecognized character Ä on line 790.
Error 03: Unrecognized character ô on line 790.
Error 03: Unrecognized character ‚ on line 790.
Error 03: Unrecognized character Ä on line 790.
Error 03: Unrecognized character ô on line 790.
Error 03: Unrecognized character ‚ on line 796.
Error 03: Unrecognized character Ä on line 796.
Error 03: Unrecognized character ì on line 796.
Error 03: Unrecognized character $ on line 799.
Error 03: Unrecognized character ‚ on line 799.
Error 03: Unrecognized character Ä on line 799.
Error 03: Unrecognized character ì on line 799.
Error 03: Unrecognized character $ on line 814.
Error 03: Unrecognized character $ on line 816.
Error 03: Unrecognized character ‚ on line 832.
Error 03: Unrecognized character Ä on line 832.
Error 03: Unrecognized character ò on line 832.
Error 03: Unrecognized character ‚ on line 832.
Error 03: Unrecognized character Ä on line 832.
Error 03: Unrecognized character ô on line 832.
Error 03: Unrecognized character ‚ on line 836.
Error 03: Unrecognized character Ä on line 836.
Error 03: Unrecognized character ô on line 836.
Error 03: Unrecognized character ‚ on line 838.
Error 03: Unrecognized character Ä on line 838.
Error 03: Unrecognized character ò on line 838.
Error 03: Unrecognized character ‚ on line 838.
Error 03: Unrecognized character Ä on line 838.
Error 03: Unrecognized character ô on line 838.
Error 03: Unrecognized character ‚ on line 838.
Error 03: Unrecognized character Ä on line 838.
Error 03: Unrecognized character ô on line 838.
Error 03: Unrecognized character & on line 850.
Error 03: Unrecognized character & on line 856.
Error 03: Unrecognized character ¬ on line 870.
Error 03: Unrecognized character © on line 870.
Error 03: Unrecognized character & on line 870.
Error 03: Unrecognized character ‚ on line 890.
Error 03: Unrecognized character Ä on line 890.
Error 03: Unrecognized character ô on line 890.
Error 03: Unrecognized character ‚ on line 890.
Error 03: Unrecognized character Ä on line 890.
Error 03: Unrecognized character ò on line 890.
Error 03: Unrecognized character ‚ on line 890.
Error 03: Unrecognized character Ä on line 890.
Error 03: Unrecognized character ô on line 890.
Error 03: Unrecognized character √ on line 899.
Error 03: Unrecognized character © on line 899.
Error 03: Unrecognized character ‚ on line 901.
Error 03: Unrecognized character Ä on line 901.
Error 03: Unrecognized character ô on line 901.
Error 03: Unrecognized character ‚ on line 901.
Error 03: Unrecognized character Ä on line 901.
Error 03: Unrecognized character ô on line 901.
Error 03: Unrecognized character ‚ on line 903.
Error 03: Unrecognized character Ä on line 903.
Error 03: Unrecognized character ú on line 903.
Error 03: Unrecognized character ‚ on line 903.
Error 03: Unrecognized character Ä on line 903.
Error 03: Unrecognized character ù on line 903.
Error 03: Unrecognized character ‚ on line 905.
Error 03: Unrecognized character Ä on line 905.
Error 03: Unrecognized character ô on line 905.
Error 03: Unrecognized character ‚ on line 905.
Error 03: Unrecognized character Ä on line 905.
Error 03: Unrecognized character ú on line 905.
Error 03: Unrecognized character ‚ on line 905.
Error 03: Unrecognized character Ä on line 905.
Error 03: Unrecognized character ù on line 905.
Error 03: Unrecognized character ‚ on line 907.
Error 03: Unrecognized character Ä on line 907.
Error 03: Unrecognized character ú on line 907.
Error 03: Unrecognized character ‚ on line 907.
Error 03: Unrecognized character Ä on line 907.
Error 03: Unrecognized character ù on line 907.
Error 03: Unrecognized character ‚ on line 909.
Error 03: Unrecognized character Ä on line 909.
Error 03: Unrecognized character ú on line 909.
Error 03: Unrecognized character ‚ on line 909.
Error 03: Unrecognized character Ä on line 909.
Error 03: Unrecognized character ù on line 909.
Error 03: Unrecognized character ‚ on line 911.
Error 03: Unrecognized character Ä on line 911.
Error 03: Unrecognized character ô on line 911.
Error 03: Unrecognized character ‚ on line 911.
Error 03: Unrecognized character Ä on line 911.
Error 03: Unrecognized character ô on line 911.
Error 03: Unrecognized character ‚ on line 911.
Error 03: Unrecognized character Ä on line 911.
Error 03: Unrecognized character ú on line 911.
Error 03: Unrecognized character ‚ on line 911.
Error 03: Unrecognized character Ä on line 911.
Error 03: Unrecognized character ù on line 911.
Error 03: Unrecognized character ‚ on line 916.
Error 03: Unrecognized character Ä on line 916.
Error 03: Unrecognized character ú on line 916.
Error 03: Unrecognized character ‚ on line 916.
Error 03: Unrecognized character Ä on line 916.
Error 03: Unrecognized character ¶ on line 916.
Error 03: Unrecognized character ‚ on line 916.
Error 03: Unrecognized character Ä on line 916.
Error 03: Unrecognized character ò on line 916.
Error 03: Unrecognized character ‚ on line 916.
Error 03: Unrecognized character Ä on line 916.
Error 03: Unrecognized character ô on line 916.
Error 03: Unrecognized character ‚ on line 916.
Error 03: Unrecognized character Ä on line 916.
Error 03: Unrecognized character ô on line 916.
Error 03: Unrecognized character ‚ on line 918.
Error 03: Unrecognized character Ä on line 918.
Error 03: Unrecognized character ú on line 918.
Error 03: Unrecognized character ‚ on line 918.
Error 03: Unrecognized character Ä on line 918.
Error 03: Unrecognized character ô on line 918.
Error 03: Unrecognized character ‚ on line 918.
Error 03: Unrecognized character Ä on line 918.
Error 03: Unrecognized character ù on line 918.
Error 03: Unrecognized character ‚ on line 920.
Error 03: Unrecognized character Ä on line 920.
Error 03: Unrecognized character ú on line 920.
Error 03: Unrecognized character ‚ on line 920.
Error 03: Unrecognized character Ä on line 920.
Error 03: Unrecognized character ù on line 920.
Error 03: Unrecognized character ‚ on line 922.
Error 03: Unrecognized character Ä on line 922.
Error 03: Unrecognized character ú on line 922.
Error 03: Unrecognized character ‚ on line 922.
Error 03: Unrecognized character Ä on line 922.
Error 03: Unrecognized character ô on line 922.
Error 03: Unrecognized character ‚ on line 922.
Error 03: Unrecognized character Ä on line 922.
Error 03: Unrecognized character ô on line 922.
Error 03: Unrecognized character ‚ on line 922.
Error 03: Unrecognized character Ä on line 922.
Error 03: Unrecognized character ô on line 922.
Error 03: Unrecognized character ‚ on line 922.
Error 03: Unrecognized character Ä on line 922.
Error 03: Unrecognized character ì on line 922.
Error 03: Unrecognized character ‚ on line 922.
Error 03: Unrecognized character Ä on line 922.
Error 03: Unrecognized character ù on line 922.
Error 03: Unrecognized character ‚ on line 926.
Error 03: Unrecognized character Ä on line 926.
Error 03: Unrecognized character ô on line 926.
Error 03: Unrecognized character ‚ on line 926.
Error 03: Unrecognized character Ä on line 926.
Error 03: Unrecognized character ú on line 926.
Error 03: Unrecognized character ‚ on line 926.
Error 03: Unrecognized character Ä on line 926.
Error 03: Unrecognized character ù on line 926.
Error 03: Unrecognized character ‚ on line 928.
Error 03: Unrecognized character Ä on line 928.
Error 03: Unrecognized character ú on line 928.
Error 03: Unrecognized character ‚ on line 928.
Error 03: Unrecognized character Ä on line 928.
Error 03: Unrecognized character ô on line 928.
Error 03: Unrecognized character ‚ on line 928.
Error 03: Unrecognized character Ä on line 928.
Error 03: Unrecognized character ù on line 928.
Error 03: Unrecognized character ‚ on line 930.
Error 03: Unrecognized character Ä on line 930.
Error 03: Unrecognized character ú on line 930.
Error 03: Unrecognized character ‚ on line 930.
Error 03: Unrecognized character Ä on line 930.
Error 03: Unrecognized character ù on line 930.
Error 03: Unrecognized character ‚ on line 933.
Error 03: Unrecognized character Ä on line 933.
Error 03: Unrecognized character ô on line 933.
Error 03: Unrecognized character ‚ on line 933.
Error 03: Unrecognized character Ä on line 933.
Error 03: Unrecognized character ú on line 933.
Error 03: Unrecognized character ‚ on line 933.
Error 03: Unrecognized character Ä on line 933.
Error 03: Unrecognized character ù on line 933.
Error 03: Unrecognized character ‚ on line 933.
Error 03: Unrecognized character Ä on line 933.
Error 03: Unrecognized character ô on line 933.
Error 03: Unrecognized character ‚ on line 937.
Error 03: Unrecognized character Ä on line 937.
Error 03: Unrecognized character ú on line 937.
Error 03: Unrecognized character ‚ on line 937.
Error 03: Unrecognized character Ä on line 937.
Error 03: Unrecognized character ì on line 937.
Error 03: Unrecognized character ‚ on line 937.
Error 03: Unrecognized character Ä on line 937.
Error 03: Unrecognized character ì on line 937.
Error 03: Unrecognized character ‚ on line 937.
Error 03: Unrecognized character Ä on line 937.
Error 03: Unrecognized character ù on line 937.
Error 03: Unrecognized character ‚ on line 939.
Error 03: Unrecognized character Ä on line 939.
Error 03: Unrecognized character ô on line 939.
Error 03: Unrecognized character ‚ on line 945.
Error 03: Unrecognized character Ä on line 945.
Error 03: Unrecognized character ô on line 945.
Error 03: Unrecognized character ‚ on line 947.
Error 03: Unrecognized character Ä on line 947.
Error 03: Unrecognized character ú on line 947.
Error 03: Unrecognized character ‚ on line 949.
Error 03: Unrecognized character Ä on line 949.
Error 03: Unrecognized character ú on line 949.
Error 03: Unrecognized character ‚ on line 949.
Error 03: Unrecognized character Ä on line 949.
Error 03: Unrecognized character ô on line 949.
Error 03: Unrecognized character ‚ on line 949.
Error 03: Unrecognized character Ä on line 949.
Error 03: Unrecognized character ù on line 949.
Error 03: Unrecognized character ‚ on line 951.
Error 03: Unrecognized character Ä on line 951.
Error 03: Unrecognized character ¶ on line 951.
Error 03: Unrecognized character ‚ on line 951.
Error 03: Unrecognized character Ä on line 951.
Error 03: Unrecognized character ô on line 951.
Error 03: Unrecognized character ‚ on line 951.
Error 03: Unrecognized character Ä on line 951.
Error 03: Unrecognized character ì on line 951.
Error 03: Unrecognized character ‚ on line 954.
Error 03: Unrecognized character Ä on line 954.
Error 03: Unrecognized character ô on line 954.
Error 03: Unrecognized character ‚ on line 954.
Error 03: Unrecognized character Ä on line 954.
Error 03: Unrecognized character ô on line 954.
Error 03: Unrecognized character ‚ on line 960.
Error 03: Unrecognized character Ä on line 960.
Error 03: Unrecognized character ì on line 960.
Error 03: Unrecognized character $ on line 963.
Error 03: Unrecognized character ‚ on line 963.
Error 03: Unrecognized character Ä on line 963.
Error 03: Unrecognized character ì on line 963.
Error 03: Unrecognized character $ on line 978.
Error 03: Unrecognized character $ on line 980.
Error 03: Unrecognized character ‚ on line 996.
Error 03: Unrecognized character Ä on line 996.
Error 03: Unrecognized character ò on line 996.
Error 03: Unrecognized character ‚ on line 996.
Error 03: Unrecognized character Ä on line 996.
Error 03: Unrecognized character ô on line 996.
Error 03: Unrecognized character ‚ on line 1000.
Error 03: Unrecognized character Ä on line 1000.
Error 03: Unrecognized character ô on line 1000.
Error 03: Unrecognized character ‚ on line 1002.
Error 03: Unrecognized character Ä on line 1002.
Error 03: Unrecognized character ò on line 1002.
Error 03: Unrecognized character ‚ on line 1002.
Error 03: Unrecognized character Ä on line 1002.
Error 03: Unrecognized character ô on line 1002.
Error 03: Unrecognized character ‚ on line 1002.
Error 03: Unrecognized character Ä on line 1002.
Error 03: Unrecognized character ô on line 1002.
Error 03: Unrecognized character & on line 1014.
Error 03: Unrecognized character & on line 1020.
Error 03: Unrecognized character ¬ on line 1034.
Error 03: Unrecognized character © on line 1034.
Error 03: Unrecognized character & on line 1034.
Error 03: Unrecognized character ‚ on line 1054.
Error 03: Unrecognized character Ä on line 1054.
Error 03: Unrecognized character ô on line 1054.
Error 03: Unrecognized character ‚ on line 1054.
Error 03: Unrecognized character Ä on line 1054.
Error 03: Unrecognized character ò on line 1054.
Error 03: Unrecognized character ‚ on line 1054.
Error 03: Unrecognized character Ä on line 1054.
Error 03: Unrecognized character ô on line 1054.
Error 03: Unrecognized character √ on line 1063.
Error 03: Unrecognized character © on line 1063.
Error 03: Unrecognized character ‚ on line 1065.
Error 03: Unrecognized character Ä on line 1065.
Error 03: Unrecognized character ô on line 1065.
Error 03: Unrecognized character ‚ on line 1065.
Error 03: Unrecognized character Ä on line 1065.
Error 03: Unrecognized character ô on line 1065.
Error 03: Unrecognized character ‚ on line 1067.
Error 03: Unrecognized character Ä on line 1067.
Error 03: Unrecognized character ú on line 1067.
Error 03: Unrecognized character ‚ on line 1067.
Error 03: Unrecognized character Ä on line 1067.
Error 03: Unrecognized character ù on line 1067.
Error 03: Unrecognized character ‚ on line 1069.
Error 03: Unrecognized character Ä on line 1069.
Error 03: Unrecognized character ô on line 1069.
Error 03: Unrecognized character ‚ on line 1069.
Error 03: Unrecognized character Ä on line 1069.
Error 03: Unrecognized character ú on line 1069.
Error 03: Unrecognized character ‚ on line 1069.
Error 03: Unrecognized character Ä on line 1069.
Error 03: Unrecognized character ù on line 1069.
Error 03: Unrecognized character ‚ on line 1071.
Error 03: Unrecognized character Ä on line 1071.
Error 03: Unrecognized character ú on line 1071.
Error 03: Unrecognized character ‚ on line 1071.
Error 03: Unrecognized character Ä on line 1071.
Error 03: Unrecognized character ù on line 1071.
Error 03: Unrecognized character ‚ on line 1073.
Error 03: Unrecognized character Ä on line 1073.
Error 03: Unrecognized character ú on line 1073.
Error 03: Unrecognized character ‚ on line 1073.
Error 03: Unrecognized character Ä on line 1073.
Error 03: Unrecognized character ù on line 1073.
Error 03: Unrecognized character ‚ on line 1075.
Error 03: Unrecognized character Ä on line 1075.
Error 03: Unrecognized character ô on line 1075.
Error 03: Unrecognized character ‚ on line 1075.
Error 03: Unrecognized character Ä on line 1075.
Error 03: Unrecognized character ô on line 1075.
Error 03: Unrecognized character ‚ on line 1075.
Error 03: Unrecognized character Ä on line 1075.
Error 03: Unrecognized character ú on line 1075.
Error 03: Unrecognized character ‚ on line 1075.
Error 03: Unrecognized character Ä on line 1075.
Error 03: Unrecognized character ù on line 1075.
Error 03: Unrecognized character ‚ on line 1080.
Error 03: Unrecognized character Ä on line 1080.
Error 03: Unrecognized character ú on line 1080.
Error 03: Unrecognized character ‚ on line 1080.
Error 03: Unrecognized character Ä on line 1080.
Error 03: Unrecognized character ¶ on line 1080.
Error 03: Unrecognized character ‚ on line 1080.
Error 03: Unrecognized character Ä on line 1080.
Error 03: Unrecognized character ò on line 1080.
Error 03: Unrecognized character ‚ on line 1080.
Error 03: Unrecognized character Ä on line 1080.
Error 03: Unrecognized character ô on line 1080.
Error 03: Unrecognized character ‚ on line 1080.
Error 03: Unrecognized character Ä on line 1080.
Error 03: Unrecognized character ô on line 1080.
Error 03: Unrecognized character ‚ on line 1082.
Error 03: Unrecognized character Ä on line 1082.
Error 03: Unrecognized character ú on line 1082.
Error 03: Unrecognized character ‚ on line 1082.
Error 03: Unrecognized character Ä on line 1082.
Error 03: Unrecognized character ô on line 1082.
Error 03: Unrecognized character ‚ on line 1082.
Error 03: Unrecognized character Ä on line 1082.
Error 03: Unrecognized character ù on line 1082.
Error 03: Unrecognized character ‚ on line 1084.
Error 03: Unrecognized character Ä on line 1084.
Error 03: Unrecognized character ú on line 1084.
Error 03: Unrecognized character ‚ on line 1084.
Error 03: Unrecognized character Ä on line 1084.
Error 03: Unrecognized character ù on line 1084.
Error 03: Unrecognized character ‚ on line 1086.
Error 03: Unrecognized character Ä on line 1086.
Error 03: Unrecognized character ú on line 1086.
Error 03: Unrecognized character ‚ on line 1086.
Error 03: Unrecognized character Ä on line 1086.
Error 03: Unrecognized character ô on line 1086.
Error 03: Unrecognized character ‚ on line 1086.
Error 03: Unrecognized character Ä on line 1086.
Error 03: Unrecognized character ô on line 1086.
Error 03: Unrecognized character ‚ on line 1086.
Error 03: Unrecognized character Ä on line 1086.
Error 03: Unrecognized character ô on line 1086.
Error 03: Unrecognized character ‚ on line 1086.
Error 03: Unrecognized character Ä on line 1086.
Error 03: Unrecognized character ì on line 1086.
Error 03: Unrecognized character ‚ on line 1086.
Error 03: Unrecognized character Ä on line 1086.
Error 03: Unrecognized character ù on line 1086.
Error 03: Unrecognized character ‚ on line 1090.
Error 03: Unrecognized character Ä on line 1090.
Error 03: Unrecognized character ô on line 1090.
Error 03: Unrecognized character ‚ on line 1090.
Error 03: Unrecognized character Ä on line 1090.
Error 03: Unrecognized character ú on line 1090.
Error 03: Unrecognized character ‚ on line 1090.
Error 03: Unrecognized character Ä on line 1090.
Error 03: Unrecognized character ù on line 1090.
Error 03: Unrecognized character ‚ on line 1092.
Error 03: Unrecognized character Ä on line 1092.
Error 03: Unrecognized character ú on line 1092.
Error 03: Unrecognized character ‚ on line 1092.
Error 03: Unrecognized character Ä on line 1092.
Error 03: Unrecognized character ô on line 1092.
Error 03: Unrecognized character ‚ on line 1092.
Error 03: Unrecognized character Ä on line 1092.
Error 03: Unrecognized character ù on line 1092.
Error 03: Unrecognized character ‚ on line 1094.
Error 03: Unrecognized character Ä on line 1094.
Error 03: Unrecognized character ú on line 1094.
Error 03: Unrecognized character ‚ on line 1094.
Error 03: Unrecognized character Ä on line 1094.
Error 03: Unrecognized character ù on line 1094.
Error 03: Unrecognized character ‚ on line 1097.
Error 03: Unrecognized character Ä on line 1097.
Error 03: Unrecognized character ô on line 1097.
Error 03: Unrecognized character ‚ on line 1097.
Error 03: Unrecognized character Ä on line 1097.
Error 03: Unrecognized character ú on line 1097.
Error 03: Unrecognized character ‚ on line 1097.
Error 03: Unrecognized character Ä on line 1097.
Error 03: Unrecognized character ù on line 1097.
Error 03: Unrecognized character ‚ on line 1097.
Error 03: Unrecognized character Ä on line 1097.
Error 03: Unrecognized character ô on line 1097.
Error 03: Unrecognized character ‚ on line 1101.
Error 03: Unrecognized character Ä on line 1101.
Error 03: Unrecognized character ú on line 1101.
Error 03: Unrecognized character ‚ on line 1101.
Error 03: Unrecognized character Ä on line 1101.
Error 03: Unrecognized character ì on line 1101.
Error 03: Unrecognized character ‚ on line 1101.
Error 03: Unrecognized character Ä on line 1101.
Error 03: Unrecognized character ì on line 1101.
Error 03: Unrecognized character ‚ on line 1101.
Error 03: Unrecognized character Ä on line 1101.
Error 03: Unrecognized character ù on line 1101.
Error 03: Unrecognized character ‚ on line 1103.
Error 03: Unrecognized character Ä on line 1103.
Error 03: Unrecognized character ô on line 1103.
Error 03: Unrecognized character ‚ on line 1109.
Error 03: Unrecognized character Ä on line 1109.
Error 03: Unrecognized character ô on line 1109.
Error 03: Unrecognized character ‚ on line 1111.
Error 03: Unrecognized character Ä on line 1111.
Error 03: Unrecognized character ú on line 1111.
Error 03: Unrecognized character ‚ on line 1113.
Error 03: Unrecognized character Ä on line 1113.
Error 03: Unrecognized character ú on line 1113.
Error 03: Unrecognized character ‚ on line 1113.
Error 03: Unrecognized character Ä on line 1113.
Error 03: Unrecognized character ô on line 1113.
Error 03: Unrecognized character ‚ on line 1113.
Error 03: Unrecognized character Ä on line 1113.
Error 03: Unrecognized character ù on line 1113.
Error 03: Unrecognized character ‚ on line 1115.
Error 03: Unrecognized character Ä on line 1115.
Error 03: Unrecognized character ¶ on line 1115.
Error 03: Unrecognized character ‚ on line 1115.
Error 03: Unrecognized character Ä on line 1115.
Error 03: Unrecognized character ô on line 1115.
Error 03: Unrecognized character ‚ on line 1115.
Error 03: Unrecognized character Ä on line 1115.
Error 03: Unrecognized character ì on line 1115.
Error 03: Unrecognized character ‚ on line 1118.
Error 03: Unrecognized character Ä on line 1118.
Error 03: Unrecognized character ô on line 1118.
Error 03: Unrecognized character ‚ on line 1118.
Error 03: Unrecognized character Ä on line 1118.
Error 03: Unrecognized character ô on line 1118.
Error 03: Unrecognized character ‚ on line 1124.
Error 03: Unrecognized character Ä on line 1124.
Error 03: Unrecognized character ì on line 1124.
Error 03: Unrecognized character $ on line 1127.
Error 03: Unrecognized character ‚ on line 1127.
Error 03: Unrecognized character Ä on line 1127.
Error 03: Unrecognized character ì on line 1127.
Error 03: Unrecognized character $ on line 1142.
Error 03: Unrecognized character $ on line 1144.
Error 03: Unrecognized character ‚ on line 1160.
Error 03: Unrecognized character Ä on line 1160.
Error 03: Unrecognized character ò on line 1160.
Error 03: Unrecognized character ‚ on line 1160.
Error 03: Unrecognized character Ä on line 1160.
Error 03: Unrecognized character ô on line 1160.
Error 03: Unrecognized character ‚ on line 1164.
Error 03: Unrecognized character Ä on line 1164.
Error 03: Unrecognized character ô on line 1164.
Error 03: Unrecognized character ‚ on line 1166.
Error 03: Unrecognized character Ä on line 1166.
Error 03: Unrecognized character ò on line 1166.
Error 03: Unrecognized character ‚ on line 1166.
Error 03: Unrecognized character Ä on line 1166.
Error 03: Unrecognized character ô on line 1166.
Error 03: Unrecognized character ‚ on line 1166.
Error 03: Unrecognized character Ä on line 1166.
Error 03: Unrecognized character ô on line 1166.
Error 03: Unrecognized character & on line 1178.
Error 03: Unrecognized character & on line 1184.
Error 03: Unrecognized character ¬ on line 1198.
Error 03: Unrecognized character © on line 1198.
Error 03: Unrecognized character & on line 1198.
Error 03: Unrecognized character ‚ on line 1218.
Error 03: Unrecognized character Ä on line 1218.
Error 03: Unrecognized character ô on line 1218.
Error 03: Unrecognized character ‚ on line 1218.
Error 03: Unrecognized character Ä on line 1218.
Error 03: Unrecognized character ò on line 1218.
Error 03: Unrecognized character ‚ on line 1218.
Error 03: Unrecognized character Ä on line 1218.
Error 03: Unrecognized character ô on line 1218.
Error 03: Unrecognized character √ on line 1227.
Error 03: Unrecognized character © on line 1227.
Error 03: Unrecognized character ‚ on line 1229.
Error 03: Unrecognized character Ä on line 1229.
Error 03: Unrecognized character ô on line 1229.
Error 03: Unrecognized character ‚ on line 1229.
Error 03: Unrecognized character Ä on line 1229.
Error 03: Unrecognized character ô on line 1229.
Error 03: Unrecognized character ‚ on line 1231.
Error 03: Unrecognized character Ä on line 1231.
Error 03: Unrecognized character ú on line 1231.
Error 03: Unrecognized character ‚ on line 1231.
Error 03: Unrecognized character Ä on line 1231.
Error 03: Unrecognized character ù on line 1231.
Error 03: Unrecognized character ‚ on line 1233.
Error 03: Unrecognized character Ä on line 1233.
Error 03: Unrecognized character ô on line 1233.
Error 03: Unrecognized character ‚ on line 1233.
Error 03: Unrecognized character Ä on line 1233.
Error 03: Unrecognized character ú on line 1233.
Error 03: Unrecognized character ‚ on line 1233.
Error 03: Unrecognized character Ä on line 1233.
Error 03: Unrecognized character ù on line 1233.
Error 03: Unrecognized character ‚ on line 1235.
Error 03: Unrecognized character Ä on line 1235.
Error 03: Unrecognized character ú on line 1235.
Error 03: Unrecognized character ‚ on line 1235.
Error 03: Unrecognized character Ä on line 1235.
Error 03: Unrecognized character ù on line 1235.
Error 03: Unrecognized character ‚ on line 1237.
Error 03: Unrecognized character Ä on line 1237.
Error 03: Unrecognized character ú on line 1237.
Error 03: Unrecognized character ‚ on line 1237.
Error 03: Unrecognized character Ä on line 1237.
Error 03: Unrecognized character ù on line 1237.
Error 03: Unrecognized character ‚ on line 1239.
Error 03: Unrecognized character Ä on line 1239.
Error 03: Unrecognized character ô on line 1239.
Error 03: Unrecognized character ‚ on line 1239.
Error 03: Unrecognized character Ä on line 1239.
Error 03: Unrecognized character ô on line 1239.
Error 03: Unrecognized character ‚ on line 1239.
Error 03: Unrecognized character Ä on line 1239.
Error 03: Unrecognized character ú on line 1239.
Error 03: Unrecognized character ‚ on line 1239.
Error 03: Unrecognized character Ä on line 1239.
Error 03: Unrecognized character ù on line 1239.
Error 03: Unrecognized character ‚ on line 1244.
Error 03: Unrecognized character Ä on line 1244.
Error 03: Unrecognized character ú on line 1244.
Error 03: Unrecognized character ‚ on line 1244.
Error 03: Unrecognized character Ä on line 1244.
Error 03: Unrecognized character ¶ on line 1244.
Error 03: Unrecognized character ‚ on line 1244.
Error 03: Unrecognized character Ä on line 1244.
Error 03: Unrecognized character ò on line 1244.
Error 03: Unrecognized character ‚ on line 1244.
Error 03: Unrecognized character Ä on line 1244.
Error 03: Unrecognized character ô on line 1244.
Error 03: Unrecognized character ‚ on line 1244.
Error 03: Unrecognized character Ä on line 1244.
Error 03: Unrecognized character ô on line 1244.
Error 03: Unrecognized character ‚ on line 1246.
Error 03: Unrecognized character Ä on line 1246.
Error 03: Unrecognized character ú on line 1246.
Error 03: Unrecognized character ‚ on line 1246.
Error 03: Unrecognized character Ä on line 1246.
Error 03: Unrecognized character ô on line 1246.
Error 03: Unrecognized character ‚ on line 1246.
Error 03: Unrecognized character Ä on line 1246.
Error 03: Unrecognized character ù on line 1246.
Error 03: Unrecognized character ‚ on line 1248.
Error 03: Unrecognized character Ä on line 1248.
Error 03: Unrecognized character ú on line 1248.
Error 03: Unrecognized character ‚ on line 1248.
Error 03: Unrecognized character Ä on line 1248.
Error 03: Unrecognized character ù on line 1248.
Error 03: Unrecognized character ‚ on line 1250.
Error 03: Unrecognized character Ä on line 1250.
Error 03: Unrecognized character ú on line 1250.
Error 03: Unrecognized character ‚ on line 1250.
Error 03: Unrecognized character Ä on line 1250.
Error 03: Unrecognized character ô on line 1250.
Error 03: Unrecognized character ‚ on line 1250.
Error 03: Unrecognized character Ä on line 1250.
Error 03: Unrecognized character ô on line 1250.
Error 03: Unrecognized character ‚ on line 1250.
Error 03: Unrecognized character Ä on line 1250.
Error 03: Unrecognized character ô on line 1250.
Error 03: Unrecognized character ‚ on line 1250.
Error 03: Unrecognized character Ä on line 1250.
Error 03: Unrecognized character ì on line 1250.
Error 03: Unrecognized character ‚ on line 1250.
Error 03: Unrecognized character Ä on line 1250.
Error 03: Unrecognized character ù on line 1250.
Error 03: Unrecognized character ‚ on line 1254.
Error 03: Unrecognized character Ä on line 1254.
Error 03: Unrecognized character ô on line 1254.
Error 03: Unrecognized character ‚ on line 1254.
Error 03: Unrecognized character Ä on line 1254.
Error 03: Unrecognized character ú on line 1254.
Error 03: Unrecognized character ‚ on line 1254.
Error 03: Unrecognized character Ä on line 1254.
Error 03: Unrecognized character ù on line 1254.
Error 03: Unrecognized character ‚ on line 1256.
Error 03: Unrecognized character Ä on line 1256.
Error 03: Unrecognized character ú on line 1256.
Error 03: Unrecognized character ‚ on line 1256.
Error 03: Unrecognized character Ä on line 1256.
Error 03: Unrecognized character ô on line 1256.
Error 03: Unrecognized character ‚ on line 1256.
Error 03: Unrecognized character Ä on line 1256.
Error 03: Unrecognized character ù on line 1256.
Error 03: Unrecognized character ‚ on line 1258.
Error 03: Unrecognized character Ä on line 1258.
Error 03: Unrecognized character ú on line 1258.
Error 03: Unrecognized character ‚ on line 1258.
Error 03: Unrecognized character Ä on line 1258.
Error 03: Unrecognized character ù on line 1258.
Error 03: Unrecognized character ‚ on line 1261.
Error 03: Unrecognized character Ä on line 1261.
Error 03: Unrecognized character ô on line 1261.
Error 03: Unrecognized character ‚ on line 1261.
Error 03: Unrecognized character Ä on line 1261.
Error 03: Unrecognized character ú on line 1261.
Error 03: Unrecognized character ‚ on line 1261.
Error 03: Unrecognized character Ä on line 1261.
Error 03: Unrecognized character ù on line 1261.
Error 03: Unrecognized character ‚ on line 1261.
Error 03: Unrecognized character Ä on line 1261.
Error 03: Unrecognized character ô on line 1261.
Error 03: Unrecognized character ‚ on line 1265.
Error 03: Unrecognized character Ä on line 1265.
Error 03: Unrecognized character ú on line 1265.
Error 03: Unrecognized character ‚ on line 1265.
Error 03: Unrecognized character Ä on line 1265.
Error 03: Unrecognized character ì on line 1265.
Error 03: Unrecognized character ‚ on line 1265.
Error 03: Unrecognized character Ä on line 1265.
Error 03: Unrecognized character ì on line 1265.
Error 03: Unrecognized character ‚ on line 1265.
Error 03: Unrecognized character Ä on line 1265.
Error 03: Unrecognized character ù on line 1265.
Error 03: Unrecognized character ‚ on line 1267.
[...]
Error 03: Unrecognized character ‚ on line 4836.
Error 03: Unrecognized character Ä on line 4836.
Error 03: Unrecognized character ú on line 4836.
Error 03: Unrecognized character ‚ on line 4836.
Error 03: Unrecognized character Ä on line 4836.
Error 03: Unrecognized character ù on line 4836.
Error 03: Unrecognized character ‚ on line 4838.
Error 03: Unrecognized character Ä on line 4838.
Error 03: Unrecognized character ú on line 4838.
Error 03: Unrecognized character ‚ on line 4838.
Error 03: Unrecognized character Ä on line 4838.
Error 03: Unrecognized character ù on line 4838.
Error 03: Unrecognized character ‚ on line 4840.
Error 03: Unrecognized character Ä on line 4840.
Error 03: Unrecognized character ú on line 4840.
Error 03: Unrecognized character ‚ on line 4840.
Error 03: Unrecognized character Ä on line 4840.
Error 03: Unrecognized character ù on line 4840.
Error 03: Unrecognized character ‚ on line 4842.
Error 03: Unrecognized character Ä on line 4842.
Error 03: Unrecognized character ô on line 4842.
Error 03: Unrecognized character ‚ on line 4842.
Error 03: Unrecognized character Ä on line 4842.
Error 03: Unrecognized character ô on line 4842.
Error 03: Unrecognized character ‚ on line 4842.
Error 03: Unrecognized character Ä on line 4842.
Error 03: Unrecognized character ú on line 4842.
Error 03: Unrecognized character ‚ on line 4842.
Error 03: Unrecognized character Ä on line 4842.
Error 03: Unrecognized character ù on line 4842.
Error 03: Unrecognized character ‚ on line 4847.
Error 03: Unrecognized character Ä on line 4847.
Error 03: Unrecognized character ú on line 4847.
Error 03: Unrecognized character ‚ on line 4847.
Error 03: Unrecognized character Ä on line 4847.
Error 03: Unrecognized character ¶ on line 4847.
Error 03: Unrecognized character ‚ on line 4847.
Error 03: Unrecognized character Ä on line 4847.
Error 03: Unrecognized character ò on line 4847.
Error 03: Unrecognized character ‚ on line 4847.
Error 03: Unrecognized character Ä on line 4847.
Error 03: Unrecognized character ô on line 4847.
Error 03: Unrecognized character ‚ on line 4847.
Error 03: Unrecognized character Ä on line 4847.
Error 03: Unrecognized character ô on line 4847.
Error 03: Unrecognized character ‚ on line 4849.
Error 03: Unrecognized character Ä on line 4849.
Error 03: Unrecognized character ú on line 4849.
Error 03: Unrecognized character ‚ on line 4849.
Error 03: Unrecognized character Ä on line 4849.
Error 03: Unrecognized character ô on line 4849.
Error 03: Unrecognized character ‚ on line 4849.
Error 03: Unrecognized character Ä on line 4849.
Error 03: Unrecognized character ù on line 4849.
Error 03: Unrecognized character ‚ on line 4851.
Error 03: Unrecognized character Ä on line 4851.
Error 03: Unrecognized character ú on line 4851.
Error 03: Unrecognized character ‚ on line 4851.
Error 03: Unrecognized character Ä on line 4851.
Error 03: Unrecognized character ù on line 4851.
Error 03: Unrecognized character ‚ on line 4853.
Error 03: Unrecognized character Ä on line 4853.
Error 03: Unrecognized character ú on line 4853.
Error 03: Unrecognized character ‚ on line 4853.
Error 03: Unrecognized character Ä on line 4853.
Error 03: Unrecognized character ô on line 4853.
Error 03: Unrecognized character ‚ on line 4853.
Error 03: Unrecognized character Ä on line 4853.
Error 03: Unrecognized character ô on line 4853.
Error 03: Unrecognized character ‚ on line 4853.
Error 03: Unrecognized character Ä on line 4853.
Error 03: Unrecognized character ô on line 4853.
Error 03: Unrecognized character ‚ on line 4853.
Error 03: Unrecognized character Ä on line 4853.
Error 03: Unrecognized character ì on line 4853.
Error 03: Unrecognized character ‚ on line 4853.
Error 03: Unrecognized character Ä on line 4853.
Error 03: Unrecognized character ù on line 4853.
Error 03: Unrecognized character ‚ on line 4857.
Error 03: Unrecognized character Ä on line 4857.
Error 03: Unrecognized character ô on line 4857.
Error 03: Unrecognized character ‚ on line 4857.
Error 03: Unrecognized character Ä on line 4857.
Error 03: Unrecognized character ú on line 4857.
Error 03: Unrecognized character ‚ on line 4857.
Error 03: Unrecognized character Ä on line 4857.
Error 03: Unrecognized character ù on line 4857.
Error 03: Unrecognized character ‚ on line 4859.
Error 03: Unrecognized character Ä on line 4859.
Error 03: Unrecognized character ú on line 4859.
Error 03: Unrecognized character ‚ on line 4859.
Error 03: Unrecognized character Ä on line 4859.
Error 03: Unrecognized character ô on line 4859.
Error 03: Unrecognized character ‚ on line 4859.
Error 03: Unrecognized character Ä on line 4859.
Error 03: Unrecognized character ù on line 4859.
Error 03: Unrecognized character ‚ on line 4861.
Error 03: Unrecognized character Ä on line 4861.
Error 03: Unrecognized character ú on line 4861.
Error 03: Unrecognized character ‚ on line 4861.
Error 03: Unrecognized character Ä on line 4861.
Error 03: Unrecognized character ù on line 4861.
Error 03: Unrecognized character ‚ on line 4864.
Error 03: Unrecognized character Ä on line 4864.
Error 03: Unrecognized character ô on line 4864.
Error 03: Unrecognized character ‚ on line 4864.
Error 03: Unrecognized character Ä on line 4864.
Error 03: Unrecognized character ú on line 4864.
Error 03: Unrecognized character ‚ on line 4864.
Error 03: Unrecognized character Ä on line 4864.
Error 03: Unrecognized character ù on line 4864.
Error 03: Unrecognized character ‚ on line 4864.
Error 03: Unrecognized character Ä on line 4864.
Error 03: Unrecognized character ô on line 4864.
Error 03: Unrecognized character ‚ on line 4868.
Error 03: Unrecognized character Ä on line 4868.
Error 03: Unrecognized character ú on line 4868.
Error 03: Unrecognized character ‚ on line 4868.
Error 03: Unrecognized character Ä on line 4868.
Error 03: Unrecognized character ì on line 4868.
Error 03: Unrecognized character ‚ on line 4868.
Error 03: Unrecognized character Ä on line 4868.
Error 03: Unrecognized character ì on line 4868.
Error 03: Unrecognized character ‚ on line 4868.
Error 03: Unrecognized character Ä on line 4868.
Error 03: Unrecognized character ù on line 4868.
Error 03: Unrecognized character ‚ on line 4870.
Error 03: Unrecognized character Ä on line 4870.
Error 03: Unrecognized character ô on line 4870.
Error 03: Unrecognized character ‚ on line 4876.
Error 03: Unrecognized character Ä on line 4876.
Error 03: Unrecognized character ô on line 4876.
Error 03: Unrecognized character ‚ on line 4878.
Error 03: Unrecognized character Ä on line 4878.
Error 03: Unrecognized character ú on line 4878.
Error 03: Unrecognized character ‚ on line 4880.
Error 03: Unrecognized character Ä on line 4880.
Error 03: Unrecognized character ú on line 4880.
Error 03: Unrecognized character ‚ on line 4880.
Error 03: Unrecognized character Ä on line 4880.
Error 03: Unrecognized character ô on line 4880.
Error 03: Unrecognized character ‚ on line 4880.
Error 03: Unrecognized character Ä on line 4880.
Error 03: Unrecognized character ù on line 4880.
Error 03: Unrecognized character ‚ on line 4882.
Error 03: Unrecognized character Ä on line 4882.
Error 03: Unrecognized character ¶ on line 4882.
Error 03: Unrecognized character ‚ on line 4882.
Error 03: Unrecognized character Ä on line 4882.
Error 03: Unrecognized character ô on line 4882.
Error 03: Unrecognized character ‚ on line 4882.
Error 03: Unrecognized character Ä on line 4882.
Error 03: Unrecognized character ì on line 4882.
Error 03: Unrecognized character ‚ on line 4885.
Error 03: Unrecognized character Ä on line 4885.
Error 03: Unrecognized character ô on line 4885.
Error 03: Unrecognized character ‚ on line 4885.
Error 03: Unrecognized character Ä on line 4885.
Error 03: Unrecognized character ô on line 4885.
Error 03: Unrecognized character ‚ on line 4891.
Error 03: Unrecognized character Ä on line 4891.
Error 03: Unrecognized character ì on line 4891.
Error 03: Unrecognized character $ on line 4894.
Error 03: Unrecognized character ‚ on line 4894.
Error 03: Unrecognized character Ä on line 4894.
Error 03: Unrecognized character ì on line 4894.
Error 03: Unrecognized character $ on line 4909.
Error 03: Unrecognized character $ on line 4911.
Error 03: Unrecognized character ‚ on line 4927.
Error 03: Unrecognized character Ä on line 4927.
Error 03: Unrecognized character ò on line 4927.
Error 03: Unrecognized character ‚ on line 4927.
Error 03: Unrecognized character Ä on line 4927.
Error 03: Unrecognized character ô on line 4927.
Error 03: Unrecognized character ‚ on line 4931.
Error 03: Unrecognized character Ä on line 4931.
Error 03: Unrecognized character ô on line 4931.
Error 03: Unrecognized character ‚ on line 4933.
Error 03: Unrecognized character Ä on line 4933.
Error 03: Unrecognized character ò on line 4933.
Error 03: Unrecognized character ‚ on line 4933.
Error 03: Unrecognized character Ä on line 4933.
Error 03: Unrecognized character ô on line 4933.
Error 03: Unrecognized character ‚ on line 4933.
Error 03: Unrecognized character Ä on line 4933.
Error 03: Unrecognized character ô on line 4933.
Error 03: Unrecognized character & on line 4945.
Error 03: Unrecognized character & on line 4951.
Error 03: Unrecognized character ¬ on line 4965.
Error 03: Unrecognized character © on line 4965.
Error 03: Unrecognized character & on line 4965.
Error 03: Unrecognized character ‚ on line 4985.
Error 03: Unrecognized character Ä on line 4985.
Error 03: Unrecognized character ô on line 4985.
Error 03: Unrecognized character ‚ on line 4985.
Error 03: Unrecognized character Ä on line 4985.
Error 03: Unrecognized character ò on line 4985.
Error 03: Unrecognized character ‚ on line 4985.
Error 03: Unrecognized character Ä on line 4985.
Error 03: Unrecognized character ô on line 4985.
Error 03: Unrecognized character √ on line 4994.
Error 03: Unrecognized character © on line 4994.
Error 03: Unrecognized character ‚ on line 4996.
Error 03: Unrecognized character Ä on line 4996.
Error 03: Unrecognized character ô on line 4996.
Error 03: Unrecognized character ‚ on line 4996.
Error 03: Unrecognized character Ä on line 4996.
Error 03: Unrecognized character ô on line 4996.
Error 03: Unrecognized character ‚ on line 4998.
Error 03: Unrecognized character Ä on line 4998.
Error 03: Unrecognized character ú on line 4998.
Error 03: Unrecognized character ‚ on line 4998.
Error 03: Unrecognized character Ä on line 4998.
Error 03: Unrecognized character ù on line 4998.
Error 03: Unrecognized character ‚ on line 5000.
Error 03: Unrecognized character Ä on line 5000.
Error 03: Unrecognized character ô on line 5000.
Error 03: Unrecognized character ‚ on line 5000.
Error 03: Unrecognized character Ä on line 5000.
Error 03: Unrecognized character ú on line 5000.
Error 03: Unrecognized character ‚ on line 5000.
Error 03: Unrecognized character Ä on line 5000.
Error 03: Unrecognized character ù on line 5000.
Error 03: Unrecognized character ‚ on line 5002.
Error 03: Unrecognized character Ä on line 5002.
Error 03: Unrecognized character ú on line 5002.
Error 03: Unrecognized character ‚ on line 5002.
Error 03: Unrecognized character Ä on line 5002.
Error 03: Unrecognized character ù on line 5002.
Error 03: Unrecognized character ‚ on line 5004.
Error 03: Unrecognized character Ä on line 5004.
Error 03: Unrecognized character ú on line 5004.
Error 03: Unrecognized character ‚ on line 5004.
Error 03: Unrecognized character Ä on line 5004.
Error 03: Unrecognized character ù on line 5004.
Error 03: Unrecognized character ‚ on line 5006.
Error 03: Unrecognized character Ä on line 5006.
Error 03: Unrecognized character ô on line 5006.
Error 03: Unrecognized character ‚ on line 5006.
Error 03: Unrecognized character Ä on line 5006.
Error 03: Unrecognized character ô on line 5006.
Error 03: Unrecognized character ‚ on line 5006.
Error 03: Unrecognized character Ä on line 5006.
Error 03: Unrecognized character ú on line 5006.
Error 03: Unrecognized character ‚ on line 5006.
Error 03: Unrecognized character Ä on line 5006.
Error 03: Unrecognized character ù on line 5006.
Error 03: Unrecognized character ‚ on line 5011.
Error 03: Unrecognized character Ä on line 5011.
Error 03: Unrecognized character ú on line 5011.
Error 03: Unrecognized character ‚ on line 5011.
Error 03: Unrecognized character Ä on line 5011.
Error 03: Unrecognized character ¶ on line 5011.
Error 03: Unrecognized character ‚ on line 5011.
Error 03: Unrecognized character Ä on line 5011.
Error 03: Unrecognized character ò on line 5011.
Error 03: Unrecognized character ‚ on line 5011.
Error 03: Unrecognized character Ä on line 5011.
Error 03: Unrecognized character ô on line 5011.
Error 03: Unrecognized character ‚ on line 5011.
Error 03: Unrecognized character Ä on line 5011.
Error 03: Unrecognized character ô on line 5011.
Error 03: Unrecognized character ‚ on line 5013.
Error 03: Unrecognized character Ä on line 5013.
Error 03: Unrecognized character ú on line 5013.
Error 03: Unrecognized character ‚ on line 5013.
Error 03: Unrecognized character Ä on line 5013.
Error 03: Unrecognized character ô on line 5013.
Error 03: Unrecognized character ‚ on line 5013.
Error 03: Unrecognized character Ä on line 5013.
Error 03: Unrecognized character ù on line 5013.
Error 03: Unrecognized character ‚ on line 5015.
Error 03: Unrecognized character Ä on line 5015.
Error 03: Unrecognized character ú on line 5015.
Error 03: Unrecognized character ‚ on line 5015.
Error 03: Unrecognized character Ä on line 5015.
Error 03: Unrecognized character ù on line 5015.
Error 03: Unrecognized character ‚ on line 5017.
Error 03: Unrecognized character Ä on line 5017.
Error 03: Unrecognized character ú on line 5017.
Error 03: Unrecognized character ‚ on line 5017.
Error 03: Unrecognized character Ä on line 5017.
Error 03: Unrecognized character ô on line 5017.
Error 03: Unrecognized character ‚ on line 5017.
Error 03: Unrecognized character Ä on line 5017.
Error 03: Unrecognized character ô on line 5017.
Error 03: Unrecognized character ‚ on line 5017.
Error 03: Unrecognized character Ä on line 5017.
Error 03: Unrecognized character ô on line 5017.
Error 03: Unrecognized character ‚ on line 5017.
Error 03: Unrecognized character Ä on line 5017.
Error 03: Unrecognized character ì on line 5017.
Error 03: Unrecognized character ‚ on line 5017.
Error 03: Unrecognized character Ä on line 5017.
Error 03: Unrecognized character ù on line 5017.
Error 03: Unrecognized character ‚ on line 5021.
Error 03: Unrecognized character Ä on line 5021.
Error 03: Unrecognized character ô on line 5021.
Error 03: Unrecognized character ‚ on line 5021.
Error 03: Unrecognized character Ä on line 5021.
Error 03: Unrecognized character ú on line 5021.
Error 03: Unrecognized character ‚ on line 5021.
Error 03: Unrecognized character Ä on line 5021.
Error 03: Unrecognized character ù on line 5021.
Error 03: Unrecognized character ‚ on line 5023.
Error 03: Unrecognized character Ä on line 5023.
Error 03: Unrecognized character ú on line 5023.
Error 03: Unrecognized character ‚ on line 5023.
Error 03: Unrecognized character Ä on line 5023.
Error 03: Unrecognized character ô on line 5023.
Error 03: Unrecognized character ‚ on line 5023.
Error 03: Unrecognized character Ä on line 5023.
Error 03: Unrecognized character ù on line 5023.
Error 03: Unrecognized character ‚ on line 5025.
Error 03: Unrecognized character Ä on line 5025.
Error 03: Unrecognized character ú on line 5025.
Error 03: Unrecognized character ‚ on line 5025.
Error 03: Unrecognized character Ä on line 5025.
Error 03: Unrecognized character ù on line 5025.
Error 03: Unrecognized character ‚ on line 5028.
Error 03: Unrecognized character Ä on line 5028.
Error 03: Unrecognized character ô on line 5028.
Error 03: Unrecognized character ‚ on line 5028.
Error 03: Unrecognized character Ä on line 5028.
Error 03: Unrecognized character ú on line 5028.
Error 03: Unrecognized character ‚ on line 5028.
Error 03: Unrecognized character Ä on line 5028.
Error 03: Unrecognized character ù on line 5028.
Error 03: Unrecognized character ‚ on line 5028.
Error 03: Unrecognized character Ä on line 5028.
Error 03: Unrecognized character ô on line 5028.
Error 03: Unrecognized character ‚ on line 5032.
Error 03: Unrecognized character Ä on line 5032.
Error 03: Unrecognized character ú on line 5032.
Error 03: Unrecognized character ‚ on line 5032.
Error 03: Unrecognized character Ä on line 5032.
Error 03: Unrecognized character ì on line 5032.
Error 03: Unrecognized character ‚ on line 5032.
Error 03: Unrecognized character Ä on line 5032.
Error 03: Unrecognized character ì on line 5032.
Error 03: Unrecognized character ‚ on line 5032.
Error 03: Unrecognized character Ä on line 5032.
Error 03: Unrecognized character ù on line 5032.
Error 03: Unrecognized character ‚ on line 5034.
Error 03: Unrecognized character Ä on line 5034.
Error 03: Unrecognized character ô on line 5034.
Error 03: Unrecognized character ‚ on line 5040.
Error 03: Unrecognized character Ä on line 5040.
Error 03: Unrecognized character ô on line 5040.
Error 03: Unrecognized character ‚ on line 5042.
Error 03: Unrecognized character Ä on line 5042.
Error 03: Unrecognized character ú on line 5042.
Error 03: Unrecognized character ‚ on line 5044.
Error 03: Unrecognized character Ä on line 5044.
Error 03: Unrecognized character ú on line 5044.
Error 03: Unrecognized character ‚ on line 5044.
Error 03: Unrecognized character Ä on line 5044.
Error 03: Unrecognized character ô on line 5044.
Error 03: Unrecognized character ‚ on line 5044.
Error 03: Unrecognized character Ä on line 5044.
Error 03: Unrecognized character ù on line 5044.
Error 03: Unrecognized character ‚ on line 5046.
Error 03: Unrecognized character Ä on line 5046.
Error 03: Unrecognized character ¶ on line 5046.
Error 03: Unrecognized character ‚ on line 5046.
Error 03: Unrecognized character Ä on line 5046.
Error 03: Unrecognized character ô on line 5046.
Error 03: Unrecognized character ‚ on line 5046.
Error 03: Unrecognized character Ä on line 5046.
Error 03: Unrecognized character ì on line 5046.
Error 03: Unrecognized character ‚ on line 5049.
Error 03: Unrecognized character Ä on line 5049.
Error 03: Unrecognized character ô on line 5049.
Error 03: Unrecognized character ‚ on line 5049.
Error 03: Unrecognized character Ä on line 5049.
Error 03: Unrecognized character ô on line 5049.
Error 03: Unrecognized character ‚ on line 5055.
Error 03: Unrecognized character Ä on line 5055.
Error 03: Unrecognized character ì on line 5055.
Error 03: Unrecognized character $ on line 5058.
Error 03: Unrecognized character ‚ on line 5058.
Error 03: Unrecognized character Ä on line 5058.
Error 03: Unrecognized character ì on line 5058.
Error 03: Unrecognized character $ on line 5073.
Error 03: Unrecognized character $ on line 5075.
Error 03: Unrecognized character ‚ on line 5091.
Error 03: Unrecognized character Ä on line 5091.
Error 03: Unrecognized character ò on line 5091.
Error 03: Unrecognized character ‚ on line 5091.
Error 03: Unrecognized character Ä on line 5091.
Error 03: Unrecognized character ô on line 5091.
Error 03: Unrecognized character ‚ on line 5095.
Error 03: Unrecognized character Ä on line 5095.
Error 03: Unrecognized character ô on line 5095.
Error 03: Unrecognized character ‚ on line 5097.
Error 03: Unrecognized character Ä on line 5097.
Error 03: Unrecognized character ò on line 5097.
Error 03: Unrecognized character ‚ on line 5097.
Error 03: Unrecognized character Ä on line 5097.
Error 03: Unrecognized character ô on line 5097.
Error 03: Unrecognized character ‚ on line 5097.
Error 03: Unrecognized character Ä on line 5097.
Error 03: Unrecognized character ô on line 5097.
Error 03: Unrecognized character & on line 5109.
Error 03: Unrecognized character & on line 5115.
Error 03: Unrecognized character ¬ on line 5129.
Error 03: Unrecognized character © on line 5129.
Error 03: Unrecognized character & on line 5129.
