Input file: input_test.txt
Output file: output.txt
Time Complete: 2021-Nov-28 8:13:25
Duration [second]: 0.000000
Word count in input files: 1
Word converted: 1
Word with error: 0
Total number of characters: 2
Number of characters have been converted: 2
Number of characters are NOT converted: 0
