Input file: input_test.txt
Output file: output.txt
Time Complete: 2021-Nov-28 1:10:32
Duration [second]: 0.000000
Word count in input files: 7
Word converted: 5
Word with error: 2
Total number of characters: 30
Number of characters have been converted: 27
Number of characters are NOT converted: 3
Error 03: Unrecognized character < on line 1.
Error 03: Unrecognized character ^ on line 1.
Error 03: Unrecognized character $ on line 1.
