Input file: input_test.txt
Output file: output.txt
Time Complete: 2021-Nov-28 1:12:41
Duration [second]: 0.000000
Word count in input files: 35
Word converted: 35
Word with error: 0
Total number of characters: 87
Number of characters have been converted: 87
Number of characters are NOT converted: 0
