Input file: input_test.txt
Output file: output.txt
Time Complete: 2021-Nov-28 1:6:45
Duration [second]: 0.000000
Word count in input files: 7
Word converted: 5
Word with error: 2
Total number of characters: 31
Number of characters have been converted: 29
Number of characters are NOT converted: 2
Error 03: Unrecognized character < on line 1.
Error 03: Unrecognized character $ on line 1.
