Input file: input_text.txt
Output file: output_text.txt
Time Complete: 2021-Nov-28 12:58:47
Duration [second]: 0.000000
Word count in input files: 6
Word converted: 6
Word with error: 0
Total number of characters: 21
Number of characters have been converted: 21
Number of characters are NOT converted: 0
