Input file: input_test.txt
Output file: output.txt
Time Complete: 2021-Nov-28 0:13:29
Duration [second]: 0.000000
Word count in input files: 4
Word converted: 3
Word with error: 1
Total number of characters: 18
Number of characters have been converted: 16
Number of characters are NOT converted: 2
