Input file: input_test.txt
Output file: output.txt
Time Complete: 2021-Nov-27 6:14:25
Duration [second]: 0.000000
Word count in input files: 4
Word converted: 4
Word with error: 0
Total number of characters: 18
Number of characters have been converted: 18
Number of characters are NOT converted: 0
