Input file: inputs/input_test.txt
Output file: outputs/output_test.txt
Time Complete: 2021-Nov-26 15:2:21
Duration [second]: 0.000000
Word count in input files: 0
Word converted: 0
Word with error: 0
Total number of characters: 0
Number of characters have been converted: 0
Number of characters are NOT converted: 0
