Input file: input_test.txt
Output file: outputs/output.txt
Time Complete: 2021-Nov-26 16:44:0
Duration [second]: 0.000000
Word count in input files: 29
Word converted: 29
Word with error: 0
Total number of characters: 75
Number of characters have been converted: 75
Number of characters are NOT converted: 0
