Input file: input_test.txt
Output file: output.txt
Time Complete: 2021-Nov-26 17:32:23
Duration [second]: 0.000000
Word count in input files: 30
Word converted: 28
Word with error: 2
Total number of characters: 145
Number of characters have been converted: 139
Number of characters are NOT converted: 6
