Input file: input_text.txt
Output file: output_text.txt
Time Complete: 2021-Nov-28 17:7:38
Duration [second]: 0.000000
Word count in input files: 6
Word converted: 2
Word with error: 4
Total number of characters: 23
Number of characters have been converted: 16
Number of characters are NOT converted: 7
Error 03: Unrecognized character Ã on line 1.
Error 03: Unrecognized character © on line 1.
Error 03: Unrecognized character < on line 1.
Error 03: Unrecognized character # on line 1.
Error 03: Unrecognized character Ã on line 2.
Error 03: Unrecognized character © on line 2.
Error 03: Unrecognized character < on line 2.
