Input file: input_text.txt
Output file: output_text.txt
Time Complete: 2021-Nov-28 12:39:51
Duration [second]: 0.000000
Word count in input files: 11
Word converted: 11
Word with error: 0
Total number of characters: 33
Number of characters have been converted: 33
Number of characters are NOT converted: 0
