Input file: input_text.txt
Output file: output_text.txt
Time Complete: 2021-Nov-28 22:40:11
Duration [second]: 0.000000
Word count in input files: 6
Word converted: 4
Word with error: 2
Total number of characters: 20
Number of characters have been converted: 17
Number of characters are NOT converted: 3
Error 03: Unrecognized character < on line 1.
Error 03: Unrecognized character # on line 1.
Error 03: Unrecognized character < on line 2.
