Input file: input_test.txt
Output file: output.txt
Time Complete: 2021-Nov-26 21:39:2
Duration [second]: 0.000000
Word count in input files: 8
Word converted: 8
Word with error: 0
Total number of characters: 36
Number of characters have been converted: 36
Number of characters are NOT converted: 0
