Input file: input_test.txt
Output file: output.txt
Time Complete: 2021-Nov-28 0:56:26
Duration [second]: 0.000000
Word count in input files: 7
Word converted: 7
Word with error: 0
Total number of characters: 30
Number of characters have been converted: 30
Number of characters are NOT converted: 0
