Input file: input_test.txt
Output file: outputs/output.txt
Time Complete: 2021-Nov-26 15:25:33
Duration [second]: 0.000000
Word count in input files: 27
Word converted: 21
Word with error: 6
Total number of characters: 201
Number of characters have been converted: 170
Number of characters are NOT converted: 31
