Input file: input_text.txt
Output file: output_text.txt
Time Complete: 2021-Nov-28 17:10:21
Duration [second]: 0.000000
Word count in input files: 6
Word converted: 2
Word with error: 4
Total number of characters: 24
Number of characters have been converted: 15
Number of characters are NOT converted: 9
Error 03: Unrecognized character -61 on line 1.
Error 03: Unrecognized character -87 on line 1.
Error 03: Unrecognized character 60 on line 1.
Error 03: Unrecognized character 35 on line 1.
Error 03: Unrecognized character -61 on line 2.
Error 03: Unrecognized character -87 on line 2.
Error 03: Unrecognized character -61 on line 2.
Error 03: Unrecognized character -87 on line 2.
Error 03: Unrecognized character 60 on line 2.
