Input file: input_test.txt
Output file: output.txt
Time Complete: 2021-Nov-27 8:43:37
Duration [second]: 0.000000
Word count in input files: 1
Word converted: 0
Word with error: 1
Total number of characters: 4
Number of characters have been converted: 0
Number of characters are NOT converted: 4
Error 04: Invalid Morse Code what on line 1.
Error 04: Invalid Morse Code hath on line 1.
Error 04: Invalid Morse Code god on line 1.
Error 04: Invalid Morse Code wrought on line 1.
