Input file: input_test.txt
Output file: output.txt
Time Complete: 2021-Nov-28 0:38:46
Duration [second]: 0.000000
Word count in input files: 3
Word converted: 3
Word with error: 0
Total number of characters: 15
Number of characters have been converted: 15
Number of characters are NOT converted: 0
