Input file: input_test.txt
Output file: output.txt
Time Complete: 2021-Nov-26 16:39:12
Duration [second]: 0.000000
Word count in input files: 9
Word converted: 9
Word with error: 0
Total number of characters: 20
Number of characters have been converted: 20
Number of characters are NOT converted: 0
