Input file: input_test.txt
Output file: output
Time Complete: 2021-Nov-27 16:12:47
Duration [second]: 0.000000
Word count in input files: 1
Word converted: 0
Word with error: 1
Total number of characters: 4
Number of characters have been converted: 0
Number of characters are NOT converted: 4
