Input file: input_text.txt
Output file: output_text.txt
Time Complete: 2021-Nov-28 12:27:18
Duration [second]: 0.000000
Word count in input files: 1
Word converted: 0
Word with error: 1
Total number of characters: 2
Number of characters have been converted: 0
Number of characters are NOT converted: 2
