Input file: input_text.txt
Output file: output_text.txt
Time Complete: 2021-Nov-28 12:50:29
Duration [second]: 0.000000
Word count in input files: 2
Word converted: 2
Word with error: 0
Total number of characters: 10
Number of characters have been converted: 10
Number of characters are NOT converted: 0
