Input file: input_test.txt
Output file: output_test.txt
Time Complete: 2021-Nov-26 15:39:10
Duration [second]: 0.000000
Word count in input files: 4
Word converted: 4
Word with error: 0
Total number of characters: 11
Number of characters have been converted: 11
Number of characters are NOT converted: 0
