Input file: input_test.txt
Output file: output.txt
Time Complete: 2021-Nov-28 8:16:47
Duration [second]: 0.000000
Word count in input files: 2
Word converted: 2
Word with error: 0
Total number of characters: 3
Number of characters have been converted: 3
Number of characters are NOT converted: 0
