Input file: input_test.txt
Output file: output.txt
Time Complete: 2021-Nov-26 18:4:2
Duration [second]: 0.000000
Word count in input files: 381
Word converted: 367
Word with error: 14
Total number of characters: 1945
Number of characters have been converted: 1897
Number of characters are NOT converted: 48
