Input file: input_test.txt
Output file: output.txt
Time Complete: 2021-Nov-28 7:51:3
Duration [second]: 0.000000
Word count in input files: 15
Word converted: 10
Word with error: 5
Total number of characters: 50
Number of characters have been converted: 42
Number of characters are NOT converted: 8
