Input file: inputs/input_test.txt
Output file: outputs/output_test.txt
Time Complete: Fri Nov 26 11:15:36 2021

Duration [second]: 0.000000
Word count in input files: 20
Word converted: 15
Word with error: 5
Total number of characters: 126
Number of characters have been converted: 106
Number of characters are NOT converted: 20
