Input file: input_test.txt
Output file: output.txt
Time Complete: 2021-Nov-26 17:35:48
Duration [second]: 0.000000
Word count in input files: 30
Word converted: 30
Word with error: 0
Total number of characters: 141
Number of characters have been converted: 141
Number of characters are NOT converted: 0
