Input file: inputs/input_test.txt
Output file: outputs/output_test.txt
<<<<<<< HEAD:log/input_test_output_test_20211126_122658.log
Time Complete: 2021-Nov-26 12:26:58
=======
Time Complete: Fri Nov 26 11:52:11 2021

>>>>>>> 3d3b3c4a25f34d3570f167f9959047fedb5ef1b7:log/input_test_output_test_3.log
Duration [second]: 0.000000
Word count in input files: 27
Word converted: 21
Word with error: 6
Total number of characters: 201
Number of characters have been converted: 170
Number of characters are NOT converted: 31
