Input file: output_text.txt
Output file: test.txt
Time Complete: 2021-Nov-28 17:53:57
Duration [second]: 0.000000
Word count in input files: 6
Word converted: 4
Word with error: 2
Total number of characters: 20
Number of characters have been converted: 17
Number of characters are NOT converted: 3
