Input file: output.txt
Output file: input_test.txt
Time Complete: 2021-Nov-26 16:53:37
Duration [second]: 0.000000
Word count in input files: 27
Word converted: 27
Word with error: 0
Total number of characters: 84
Number of characters have been converted: 84
Number of characters are NOT converted: 0
