Input file: output_text.txt
Output file: test.txt
Time Complete: 2021-Nov-28 18:7:32
Duration [second]: 0.000000
Word count in input files: 6
Word converted: 4
Word with error: 2
Total number of characters: 20
Number of characters have been converted: 15
Number of characters are NOT converted: 5
