Input file: output.txt
Output file: input_test.txt
Time Complete: 2021-Nov-26 18:5:38
Duration [second]: 0.000000
Word count in input files: 2275
Word converted: 2275
Word with error: 0
Total number of characters: 5659
Number of characters have been converted: 5659
Number of characters are NOT converted: 0
