Input file: output.txt
Output file: input_test.txt
Time Complete: 2021-Nov-28 0:43:39
Duration [second]: 0.000000
Word count in input files: 3
Word converted: 0
Word with error: 3
Total number of characters: 15
Number of characters have been converted: 14
Number of characters are NOT converted: 1
Error 04: Invalid Morse Code ........ on line 1.
