Input file: output.txt
Output file: input_test.txt
Time Complete: 2021-Nov-28 0:45:21
Duration [second]: 0.000000
Word count in input files: 17
Word converted: 17
Word with error: 0
Total number of characters: 41
Number of characters have been converted: 41
Number of characters are NOT converted: 0
